/*---------------------------------------------------------------------------*\
| =========                 |                                                 |
| \\      /  F ield         | OpenFOAM: The Open Source CFD Toolbox           |
|  \\    /   O peration     | Version:  v2012                                 |
|   \\  /    A nd           | Website:  www.openfoam.com                      |
|    \\/     M anipulation  |                                                 |
\*---------------------------------------------------------------------------*/
Build  : _7bdb509494-20201222 OPENFOAM=2012
Arch   : "LSB;label=32;scalar=64"
Exec   : simpleFoam
Date   : Dec 08 2022
Time   : 11:21:16
Host   : HansisPC
PID    : 1390
I/O    : uncollated
Case   : /mnt/c/Users/hansi/tutorial/03_TAP/airfoil2d/mesh_export_test
nProcs : 1
trapFpe: Floating point exception trapping enabled (FOAM_SIGFPE).
fileModificationChecking : Monitoring run-time modified files using timeStampMaster (fileModificationSkew 5, maxFileModificationPolls 20)
allowSystemOperations : Allowing user-supplied system call operations

// * * * * * * * * * * * * * * * * * * * * * * * * * * * * * * * * * * * * * //
Create time

Create mesh for time = 0


SIMPLE: convergence criteria
    field p	 tolerance 1e-05
    field U	 tolerance 1e-05
    field nuTilda	 tolerance 1e-05

Reading field p

Reading field U

Reading/calculating face flux field phi

Selecting incompressible transport model Newtonian
Selecting turbulence model type RAS
Selecting RAS turbulence model SpalartAllmaras
Selecting patchDistMethod meshWave
RAS
{
    RASModel        SpalartAllmaras;
    turbulence      on;
    printCoeffs     on;
    sigmaNut        0.66666;
    kappa           0.41;
    Cb1             0.1355;
    Cb2             0.622;
    Cw2             0.3;
    Cw3             2;
    Cv1             7.1;
    Cs              0.3;
}

No MRF models present

No finite volume options present

Starting time loop

momentumError momErr:
Time = 1

smoothSolver:  Solving for Ux, Initial residual = 1, Final residual = 0.0907821, No Iterations 2
smoothSolver:  Solving for Uy, Initial residual = 1, Final residual = 0.0313431, No Iterations 4
GAMG:  Solving for p, Initial residual = 0.772945, Final residual = 0.0719102, No Iterations 10
time step continuity errors : sum local = 0.0040269, global = 0.000979187, cumulative = 0.000979187
smoothSolver:  Solving for nuTilda, Initial residual = 1, Final residual = 0.0300881, No Iterations 4
ExecutionTime = 0.28 s  ClockTime = 0 s

    functionObjects::div contErr writing field: div(phi)
Time = 2

smoothSolver:  Solving for Ux, Initial residual = 0.329814, Final residual = 0.0139465, No Iterations 4
smoothSolver:  Solving for Uy, Initial residual = 0.624183, Final residual = 0.0167874, No Iterations 4
GAMG:  Solving for p, Initial residual = 0.0906562, Final residual = 0.00864122, No Iterations 8
time step continuity errors : sum local = 0.00389177, global = 0.00129044, cumulative = 0.00226963
smoothSolver:  Solving for nuTilda, Initial residual = 0.0736186, Final residual = 0.00196394, No Iterations 4
ExecutionTime = 0.38 s  ClockTime = 0 s

    functionObjects::div contErr writing field: div(phi)
Time = 3

smoothSolver:  Solving for Ux, Initial residual = 0.128577, Final residual = 0.00536624, No Iterations 4
smoothSolver:  Solving for Uy, Initial residual = 0.238139, Final residual = 0.00641609, No Iterations 4
GAMG:  Solving for p, Initial residual = 0.169317, Final residual = 0.0154372, No Iterations 10
time step continuity errors : sum local = 0.00489217, global = 0.00128048, cumulative = 0.00355011
smoothSolver:  Solving for nuTilda, Initial residual = 0.0522204, Final residual = 0.0036126, No Iterations 2
ExecutionTime = 0.46 s  ClockTime = 1 s

    functionObjects::div contErr writing field: div(phi)
Time = 4

smoothSolver:  Solving for Ux, Initial residual = 0.0527533, Final residual = 0.00354137, No Iterations 2
smoothSolver:  Solving for Uy, Initial residual = 0.0826408, Final residual = 0.00340917, No Iterations 2
GAMG:  Solving for p, Initial residual = 0.231222, Final residual = 0.0192487, No Iterations 13
time step continuity errors : sum local = 0.00363114, global = -0.000928887, cumulative = 0.00262122
smoothSolver:  Solving for nuTilda, Initial residual = 0.0293877, Final residual = 0.00069171, No Iterations 4
ExecutionTime = 0.55 s  ClockTime = 1 s

    functionObjects::div contErr writing field: div(phi)
Time = 5

smoothSolver:  Solving for Ux, Initial residual = 0.121056, Final residual = 0.00467652, No Iterations 4
smoothSolver:  Solving for Uy, Initial residual = 0.283864, Final residual = 0.0231782, No Iterations 2
GAMG:  Solving for p, Initial residual = 0.13393, Final residual = 0.0132942, No Iterations 8
time step continuity errors : sum local = 0.0046382, global = -0.00147051, cumulative = 0.0011507
smoothSolver:  Solving for nuTilda, Initial residual = 0.0228801, Final residual = 0.000658265, No Iterations 4
ExecutionTime = 0.63 s  ClockTime = 1 s

    functionObjects::div contErr writing field: div(phi)
Time = 6

smoothSolver:  Solving for Ux, Initial residual = 0.101608, Final residual = 0.00458985, No Iterations 4
smoothSolver:  Solving for Uy, Initial residual = 0.249749, Final residual = 0.00703216, No Iterations 4
GAMG:  Solving for p, Initial residual = 0.232322, Final residual = 0.0177179, No Iterations 8
time step continuity errors : sum local = 0.00350615, global = -0.000704113, cumulative = 0.000446592
smoothSolver:  Solving for nuTilda, Initial residual = 0.0203851, Final residual = 0.000630751, No Iterations 4
ExecutionTime = 0.68 s  ClockTime = 1 s

    functionObjects::div contErr writing field: div(phi)
Time = 7

smoothSolver:  Solving for Ux, Initial residual = 0.0913518, Final residual = 0.00333057, No Iterations 2
smoothSolver:  Solving for Uy, Initial residual = 0.191735, Final residual = 0.00759523, No Iterations 2
GAMG:  Solving for p, Initial residual = 0.244819, Final residual = 0.0228137, No Iterations 11
time step continuity errors : sum local = 0.0037186, global = 0.000969734, cumulative = 0.00141633
smoothSolver:  Solving for nuTilda, Initial residual = 0.01835, Final residual = 0.000629826, No Iterations 4
ExecutionTime = 0.77 s  ClockTime = 1 s

    functionObjects::div contErr writing field: div(phi)
Time = 8

smoothSolver:  Solving for Ux, Initial residual = 0.109123, Final residual = 0.0107096, No Iterations 2
smoothSolver:  Solving for Uy, Initial residual = 0.210483, Final residual = 0.0112093, No Iterations 2
GAMG:  Solving for p, Initial residual = 0.181212, Final residual = 0.0176026, No Iterations 8
time step continuity errors : sum local = 0.00420098, global = 0.0013231, cumulative = 0.00273943
smoothSolver:  Solving for nuTilda, Initial residual = 0.0174113, Final residual = 0.000615268, No Iterations 4
ExecutionTime = 0.85 s  ClockTime = 2 s

    functionObjects::div contErr writing field: div(phi)
Time = 9

smoothSolver:  Solving for Ux, Initial residual = 0.0720237, Final residual = 0.00267574, No Iterations 4
smoothSolver:  Solving for Uy, Initial residual = 0.116161, Final residual = 0.0102259, No Iterations 2
GAMG:  Solving for p, Initial residual = 0.349235, Final residual = 0.0277878, No Iterations 9
time step continuity errors : sum local = 0.00326957, global = 0.000762376, cumulative = 0.0035018
smoothSolver:  Solving for nuTilda, Initial residual = 0.0159345, Final residual = 0.000601184, No Iterations 4
ExecutionTime = 0.95 s  ClockTime = 2 s

    functionObjects::div contErr writing field: div(phi)
Time = 10

smoothSolver:  Solving for Ux, Initial residual = 0.0647954, Final residual = 0.00272139, No Iterations 2
smoothSolver:  Solving for Uy, Initial residual = 0.108247, Final residual = 0.00538221, No Iterations 2
GAMG:  Solving for p, Initial residual = 0.253312, Final residual = 0.0208388, No Iterations 9
time step continuity errors : sum local = 0.00318962, global = -0.000796438, cumulative = 0.00270537
smoothSolver:  Solving for nuTilda, Initial residual = 0.0158008, Final residual = 0.000582341, No Iterations 4
bounding nuTilda, min: -0.00799278 max: 7.59919 average: 0.205673
ExecutionTime = 0.98 s  ClockTime = 2 s

    functionObjects::div contErr writing field: div(phi)
Time = 11

smoothSolver:  Solving for Ux, Initial residual = 0.0727296, Final residual = 0.00581048, No Iterations 2
smoothSolver:  Solving for Uy, Initial residual = 0.128367, Final residual = 0.00504673, No Iterations 2
GAMG:  Solving for p, Initial residual = 0.195871, Final residual = 0.0187847, No Iterations 8
time step continuity errors : sum local = 0.00384639, global = -0.00121232, cumulative = 0.00149304
smoothSolver:  Solving for nuTilda, Initial residual = 0.0156666, Final residual = 0.000572391, No Iterations 4
bounding nuTilda, min: -0.0673531 max: 8.11007 average: 0.213642
ExecutionTime = 1.07 s  ClockTime = 2 s

    functionObjects::div contErr writing field: div(phi)
Time = 12

smoothSolver:  Solving for Ux, Initial residual = 0.0589528, Final residual = 0.0019679, No Iterations 4
smoothSolver:  Solving for Uy, Initial residual = 0.10237, Final residual = 0.00716303, No Iterations 2
GAMG:  Solving for p, Initial residual = 0.304027, Final residual = 0.0279731, No Iterations 7
time step continuity errors : sum local = 0.00349855, global = 0.000627683, cumulative = 0.00212072
smoothSolver:  Solving for nuTilda, Initial residual = 0.0157176, Final residual = 0.000564403, No Iterations 4
bounding nuTilda, min: -0.13582 max: 8.54931 average: 0.221977
ExecutionTime = 1.16 s  ClockTime = 3 s

    functionObjects::div contErr writing field: div(phi)
Time = 13

smoothSolver:  Solving for Ux, Initial residual = 0.055415, Final residual = 0.00291353, No Iterations 2
smoothSolver:  Solving for Uy, Initial residual = 0.102102, Final residual = 0.00584305, No Iterations 2
GAMG:  Solving for p, Initial residual = 0.403983, Final residual = 0.0387504, No Iterations 7
time step continuity errors : sum local = 0.00355912, global = -0.000824869, cumulative = 0.00129586
smoothSolver:  Solving for nuTilda, Initial residual = 0.0155002, Final residual = 0.00055278, No Iterations 4
bounding nuTilda, min: -0.17125 max: 8.88406 average: 0.230489
ExecutionTime = 1.21 s  ClockTime = 3 s

    functionObjects::div contErr writing field: div(phi)
Time = 14

smoothSolver:  Solving for Ux, Initial residual = 0.0606051, Final residual = 0.00336066, No Iterations 2
smoothSolver:  Solving for Uy, Initial residual = 0.106748, Final residual = 0.00371934, No Iterations 2
GAMG:  Solving for p, Initial residual = 0.270108, Final residual = 0.0253951, No Iterations 9
time step continuity errors : sum local = 0.00348062, global = 0.000873078, cumulative = 0.00216893
smoothSolver:  Solving for nuTilda, Initial residual = 0.0154311, Final residual = 0.000554421, No Iterations 4
bounding nuTilda, min: -0.22582 max: 9.01964 average: 0.239322
ExecutionTime = 1.3 s  ClockTime = 3 s

    functionObjects::div contErr writing field: div(phi)
Time = 15

smoothSolver:  Solving for Ux, Initial residual = 0.054549, Final residual = 0.00490068, No Iterations 2
smoothSolver:  Solving for Uy, Initial residual = 0.084786, Final residual = 0.00487142, No Iterations 2
GAMG:  Solving for p, Initial residual = 0.326334, Final residual = 0.0310898, No Iterations 9
time step continuity errors : sum local = 0.00331555, global = 0.000949231, cumulative = 0.00311816
smoothSolver:  Solving for nuTilda, Initial residual = 0.0152515, Final residual = 0.000548343, No Iterations 4
bounding nuTilda, min: -0.208437 max: 9.59585 average: 0.248154
ExecutionTime = 1.41 s  ClockTime = 3 s

    functionObjects::div contErr writing field: div(phi)
Time = 16

smoothSolver:  Solving for Ux, Initial residual = 0.0481313, Final residual = 0.00326551, No Iterations 2
smoothSolver:  Solving for Uy, Initial residual = 0.0692623, Final residual = 0.00473923, No Iterations 2
GAMG:  Solving for p, Initial residual = 0.460069, Final residual = 0.0457667, No Iterations 6
time step continuity errors : sum local = 0.00347636, global = 0.000911946, cumulative = 0.00403011
smoothSolver:  Solving for nuTilda, Initial residual = 0.0151073, Final residual = 0.000553976, No Iterations 4
bounding nuTilda, min: -0.224554 max: 10.141 average: 0.256797
ExecutionTime = 1.49 s  ClockTime = 3 s

    functionObjects::div contErr writing field: div(phi)
Time = 17

smoothSolver:  Solving for Ux, Initial residual = 0.0486657, Final residual = 0.00234084, No Iterations 2
smoothSolver:  Solving for Uy, Initial residual = 0.0784799, Final residual = 0.00373012, No Iterations 2
GAMG:  Solving for p, Initial residual = 0.280305, Final residual = 0.0247981, No Iterations 7
time step continuity errors : sum local = 0.00309349, global = -0.000883452, cumulative = 0.00314666
smoothSolver:  Solving for nuTilda, Initial residual = 0.0153477, Final residual = 0.000555925, No Iterations 4
bounding nuTilda, min: -0.327827 max: 10.414 average: 0.265299
ExecutionTime = 1.54 s  ClockTime = 4 s

    functionObjects::div contErr writing field: div(phi)
Time = 18

smoothSolver:  Solving for Ux, Initial residual = 0.0512789, Final residual = 0.00415694, No Iterations 2
smoothSolver:  Solving for Uy, Initial residual = 0.0767043, Final residual = 0.00410398, No Iterations 2
GAMG:  Solving for p, Initial residual = 0.253244, Final residual = 0.0213493, No Iterations 9
time step continuity errors : sum local = 0.00273997, global = -0.000694032, cumulative = 0.00245263
smoothSolver:  Solving for nuTilda, Initial residual = 0.0149827, Final residual = 0.000555961, No Iterations 4
bounding nuTilda, min: -0.163638 max: 10.4699 average: 0.27385
ExecutionTime = 1.63 s  ClockTime = 4 s

    functionObjects::div contErr writing field: div(phi)
Time = 19

smoothSolver:  Solving for Ux, Initial residual = 0.0445993, Final residual = 0.00388252, No Iterations 2
smoothSolver:  Solving for Uy, Initial residual = 0.0675374, Final residual = 0.0047172, No Iterations 2
GAMG:  Solving for p, Initial residual = 0.405259, Final residual = 0.0337117, No Iterations 7
time step continuity errors : sum local = 0.00272464, global = -0.000575481, cumulative = 0.00187714
smoothSolver:  Solving for nuTilda, Initial residual = 0.0149821, Final residual = 0.000555567, No Iterations 4
bounding nuTilda, min: -0.227695 max: 10.2092 average: 0.282481
ExecutionTime = 1.69 s  ClockTime = 4 s

    functionObjects::div contErr writing field: div(phi)
Time = 20

smoothSolver:  Solving for Ux, Initial residual = 0.040897, Final residual = 0.00224404, No Iterations 2
smoothSolver:  Solving for Uy, Initial residual = 0.0655127, Final residual = 0.00350553, No Iterations 2
GAMG:  Solving for p, Initial residual = 0.480561, Final residual = 0.0460397, No Iterations 6
time step continuity errors : sum local = 0.00313257, global = -0.000587044, cumulative = 0.0012901
smoothSolver:  Solving for nuTilda, Initial residual = 0.014826, Final residual = 0.000544846, No Iterations 4
bounding nuTilda, min: -0.441142 max: 10.5781 average: 0.291651
ExecutionTime = 1.76 s  ClockTime = 4 s

    functionObjects::div contErr writing field: div(phi)
Time = 21

smoothSolver:  Solving for Ux, Initial residual = 0.0421899, Final residual = 0.0027029, No Iterations 2
smoothSolver:  Solving for Uy, Initial residual = 0.0674831, Final residual = 0.00301876, No Iterations 2
GAMG:  Solving for p, Initial residual = 0.362094, Final residual = 0.0336708, No Iterations 7
time step continuity errors : sum local = 0.00281974, global = 0.000690848, cumulative = 0.00198095
smoothSolver:  Solving for nuTilda, Initial residual = 0.0145825, Final residual = 0.000527023, No Iterations 4
bounding nuTilda, min: -0.291391 max: 10.8423 average: 0.301103
ExecutionTime = 1.82 s  ClockTime = 4 s

    functionObjects::div contErr writing field: div(phi)
Time = 22

smoothSolver:  Solving for Ux, Initial residual = 0.0402182, Final residual = 0.00320987, No Iterations 2
smoothSolver:  Solving for Uy, Initial residual = 0.0653925, Final residual = 0.00380007, No Iterations 2
GAMG:  Solving for p, Initial residual = 0.398942, Final residual = 0.0335857, No Iterations 9
time step continuity errors : sum local = 0.00244503, global = 0.000584357, cumulative = 0.0025653
smoothSolver:  Solving for nuTilda, Initial residual = 0.0144528, Final residual = 0.000512259, No Iterations 4
bounding nuTilda, min: -0.18912 max: 10.7669 average: 0.310559
ExecutionTime = 1.87 s  ClockTime = 5 s

    functionObjects::div contErr writing field: div(phi)
Time = 23

smoothSolver:  Solving for Ux, Initial residual = 0.0358553, Final residual = 0.00240013, No Iterations 2
smoothSolver:  Solving for Uy, Initial residual = 0.0579133, Final residual = 0.00340004, No Iterations 2
GAMG:  Solving for p, Initial residual = 0.535523, Final residual = 0.0517539, No Iterations 6
time step continuity errors : sum local = 0.00282405, global = 0.000582019, cumulative = 0.00314732
smoothSolver:  Solving for nuTilda, Initial residual = 0.0142109, Final residual = 0.000498308, No Iterations 4
bounding nuTilda, min: -0.507497 max: 10.6093 average: 0.319954
ExecutionTime = 1.95 s  ClockTime = 5 s

    functionObjects::div contErr writing field: div(phi)
Time = 24

smoothSolver:  Solving for Ux, Initial residual = 0.03609, Final residual = 0.00225656, No Iterations 2
smoothSolver:  Solving for Uy, Initial residual = 0.0575978, Final residual = 0.00333949, No Iterations 2
GAMG:  Solving for p, Initial residual = 0.358304, Final residual = 0.0325582, No Iterations 8
time step continuity errors : sum local = 0.00253768, global = 0.000540347, cumulative = 0.00368767
smoothSolver:  Solving for nuTilda, Initial residual = 0.0138483, Final residual = 0.000482882, No Iterations 4
bounding nuTilda, min: -0.462768 max: 10.7617 average: 0.329386
ExecutionTime = 2.02 s  ClockTime = 5 s

    functionObjects::div contErr writing field: div(phi)
Time = 25

smoothSolver:  Solving for Ux, Initial residual = 0.0379314, Final residual = 0.00292168, No Iterations 2
smoothSolver:  Solving for Uy, Initial residual = 0.0613114, Final residual = 0.0042259, No Iterations 2
GAMG:  Solving for p, Initial residual = 0.316438, Final residual = 0.0282301, No Iterations 7
time step continuity errors : sum local = 0.00230689, global = -0.000463346, cumulative = 0.00322433
smoothSolver:  Solving for nuTilda, Initial residual = 0.0135639, Final residual = 0.000477123, No Iterations 4
bounding nuTilda, min: -0.276687 max: 10.5197 average: 0.338142
ExecutionTime = 2.1 s  ClockTime = 5 s

    functionObjects::div contErr writing field: div(phi)
Time = 26

smoothSolver:  Solving for Ux, Initial residual = 0.0363211, Final residual = 0.00265411, No Iterations 2
smoothSolver:  Solving for Uy, Initial residual = 0.0597012, Final residual = 0.00420139, No Iterations 2
GAMG:  Solving for p, Initial residual = 0.345419, Final residual = 0.0342245, No Iterations 7
time step continuity errors : sum local = 0.00246214, global = -0.000677078, cumulative = 0.00254725
smoothSolver:  Solving for nuTilda, Initial residual = 0.0133516, Final residual = 0.00047858, No Iterations 4
bounding nuTilda, min: -0.252767 max: 10.467 average: 0.346001
ExecutionTime = 2.19 s  ClockTime = 5 s

    functionObjects::div contErr writing field: div(phi)
Time = 27

smoothSolver:  Solving for Ux, Initial residual = 0.0325429, Final residual = 0.002181, No Iterations 2
smoothSolver:  Solving for Uy, Initial residual = 0.0547015, Final residual = 0.00337437, No Iterations 2
GAMG:  Solving for p, Initial residual = 0.423608, Final residual = 0.0397779, No Iterations 8
time step continuity errors : sum local = 0.00227827, global = -0.000516917, cumulative = 0.00203033
smoothSolver:  Solving for nuTilda, Initial residual = 0.0133965, Final residual = 0.000480823, No Iterations 4
bounding nuTilda, min: -0.559852 max: 10.3101 average: 0.35311
ExecutionTime = 2.29 s  ClockTime = 6 s

    functionObjects::div contErr writing field: div(phi)
Time = 28

smoothSolver:  Solving for Ux, Initial residual = 0.0300679, Final residual = 0.00220741, No Iterations 2
smoothSolver:  Solving for Uy, Initial residual = 0.0531302, Final residual = 0.00306331, No Iterations 2
GAMG:  Solving for p, Initial residual = 0.508465, Final residual = 0.0429599, No Iterations 10
time step continuity errors : sum local = 0.00196968, global = -0.000464297, cumulative = 0.00156603
smoothSolver:  Solving for nuTilda, Initial residual = 0.013146, Final residual = 0.000478658, No Iterations 4
bounding nuTilda, min: -0.294787 max: 10.1043 average: 0.359948
ExecutionTime = 2.33 s  ClockTime = 6 s

    functionObjects::div contErr writing field: div(phi)
Time = 29

smoothSolver:  Solving for Ux, Initial residual = 0.0304214, Final residual = 0.00205081, No Iterations 2
smoothSolver:  Solving for Uy, Initial residual = 0.0499084, Final residual = 0.00296718, No Iterations 2
GAMG:  Solving for p, Initial residual = 0.528987, Final residual = 0.0426152, No Iterations 9
time step continuity errors : sum local = 0.00178786, global = 0.000345122, cumulative = 0.00191116
smoothSolver:  Solving for nuTilda, Initial residual = 0.013007, Final residual = 0.000474964, No Iterations 4
bounding nuTilda, min: -0.556043 max: 9.93188 average: 0.366428
ExecutionTime = 2.42 s  ClockTime = 6 s

    functionObjects::div contErr writing field: div(phi)
Time = 30

smoothSolver:  Solving for Ux, Initial residual = 0.0296965, Final residual = 0.00185843, No Iterations 2
smoothSolver:  Solving for Uy, Initial residual = 0.0462942, Final residual = 0.00316693, No Iterations 2
GAMG:  Solving for p, Initial residual = 0.500555, Final residual = 0.0477311, No Iterations 7
time step continuity errors : sum local = 0.00197358, global = 0.000443181, cumulative = 0.00235434
smoothSolver:  Solving for nuTilda, Initial residual = 0.0128631, Final residual = 0.000469068, No Iterations 4
bounding nuTilda, min: -0.488139 max: 9.77445 average: 0.372717
ExecutionTime = 2.51 s  ClockTime = 6 s

    functionObjects::div contErr writing field: div(phi)
Time = 31

smoothSolver:  Solving for Ux, Initial residual = 0.0289958, Final residual = 0.00199275, No Iterations 2
smoothSolver:  Solving for Uy, Initial residual = 0.0487555, Final residual = 0.00367781, No Iterations 2
GAMG:  Solving for p, Initial residual = 0.469144, Final residual = 0.0455715, No Iterations 6
time step continuity errors : sum local = 0.00192604, global = 0.00039039, cumulative = 0.00274473
smoothSolver:  Solving for nuTilda, Initial residual = 0.0126702, Final residual = 0.000465268, No Iterations 4
bounding nuTilda, min: -0.59756 max: 9.52104 average: 0.378646
ExecutionTime = 2.57 s  ClockTime = 6 s

    functionObjects::div contErr writing field: div(phi)
Time = 32

smoothSolver:  Solving for Ux, Initial residual = 0.0278348, Final residual = 0.00181972, No Iterations 2
smoothSolver:  Solving for Uy, Initial residual = 0.0502723, Final residual = 0.00343471, No Iterations 2
GAMG:  Solving for p, Initial residual = 0.432862, Final residual = 0.0338047, No Iterations 10
time step continuity errors : sum local = 0.00150951, global = 0.000301877, cumulative = 0.0030466
smoothSolver:  Solving for nuTilda, Initial residual = 0.0125699, Final residual = 0.000465617, No Iterations 4
bounding nuTilda, min: -0.541609 max: 9.35993 average: 0.383919
ExecutionTime = 2.66 s  ClockTime = 7 s

    functionObjects::div contErr writing field: div(phi)
Time = 33

smoothSolver:  Solving for Ux, Initial residual = 0.0283228, Final residual = 0.0019216, No Iterations 2
smoothSolver:  Solving for Uy, Initial residual = 0.045072, Final residual = 0.00290338, No Iterations 2
GAMG:  Solving for p, Initial residual = 0.366287, Final residual = 0.0321072, No Iterations 9
time step continuity errors : sum local = 0.00164631, global = -0.000311784, cumulative = 0.00273482
smoothSolver:  Solving for nuTilda, Initial residual = 0.0124275, Final residual = 0.000468316, No Iterations 4
bounding nuTilda, min: -0.542861 max: 9.13048 average: 0.388703
ExecutionTime = 2.75 s  ClockTime = 7 s

    functionObjects::div contErr writing field: div(phi)
Time = 34

smoothSolver:  Solving for Ux, Initial residual = 0.0284885, Final residual = 0.0019946, No Iterations 2
smoothSolver:  Solving for Uy, Initial residual = 0.0413843, Final residual = 0.00308114, No Iterations 2
GAMG:  Solving for p, Initial residual = 0.309756, Final residual = 0.0297712, No Iterations 7
time step continuity errors : sum local = 0.00169175, global = -0.000342442, cumulative = 0.00239238
smoothSolver:  Solving for nuTilda, Initial residual = 0.0122612, Final residual = 0.000470997, No Iterations 4
bounding nuTilda, min: -0.525034 max: 8.94714 average: 0.392846
ExecutionTime = 2.83 s  ClockTime = 7 s

    functionObjects::div contErr writing field: div(phi)
Time = 35

smoothSolver:  Solving for Ux, Initial residual = 0.0271821, Final residual = 0.0016899, No Iterations 2
smoothSolver:  Solving for Uy, Initial residual = 0.042317, Final residual = 0.00284816, No Iterations 2
GAMG:  Solving for p, Initial residual = 0.290826, Final residual = 0.0275431, No Iterations 7
time step continuity errors : sum local = 0.00158453, global = -0.000357819, cumulative = 0.00203456
smoothSolver:  Solving for nuTilda, Initial residual = 0.0121799, Final residual = 0.000469492, No Iterations 4
bounding nuTilda, min: -0.475922 max: 8.78957 average: 0.396392
ExecutionTime = 2.91 s  ClockTime = 7 s

    functionObjects::div contErr writing field: div(phi)
Time = 36

smoothSolver:  Solving for Ux, Initial residual = 0.0261753, Final residual = 0.00185183, No Iterations 2
smoothSolver:  Solving for Uy, Initial residual = 0.0444756, Final residual = 0.00301301, No Iterations 2
GAMG:  Solving for p, Initial residual = 0.306233, Final residual = 0.0264991, No Iterations 7
time step continuity errors : sum local = 0.00143531, global = -0.000403397, cumulative = 0.00163116
smoothSolver:  Solving for nuTilda, Initial residual = 0.0119578, Final residual = 0.000465388, No Iterations 4
bounding nuTilda, min: -0.42757 max: 8.52699 average: 0.39938
ExecutionTime = 2.98 s  ClockTime = 8 s

    functionObjects::div contErr writing field: div(phi)
Time = 37

smoothSolver:  Solving for Ux, Initial residual = 0.0252041, Final residual = 0.00200368, No Iterations 2
smoothSolver:  Solving for Uy, Initial residual = 0.0424719, Final residual = 0.00386125, No Iterations 2
GAMG:  Solving for p, Initial residual = 0.35524, Final residual = 0.0317376, No Iterations 8
time step continuity errors : sum local = 0.0014458, global = -0.000287604, cumulative = 0.00134356
smoothSolver:  Solving for nuTilda, Initial residual = 0.0117962, Final residual = 0.000462627, No Iterations 4
bounding nuTilda, min: -0.435937 max: 8.4119 average: 0.401712
ExecutionTime = 3.05 s  ClockTime = 8 s

    functionObjects::div contErr writing field: div(phi)
Time = 38

smoothSolver:  Solving for Ux, Initial residual = 0.0234512, Final residual = 0.00171569, No Iterations 2
smoothSolver:  Solving for Uy, Initial residual = 0.0384497, Final residual = 0.00358287, No Iterations 2
GAMG:  Solving for p, Initial residual = 0.432347, Final residual = 0.0409559, No Iterations 7
time step continuity errors : sum local = 0.00149231, global = 0.000290412, cumulative = 0.00163397
smoothSolver:  Solving for nuTilda, Initial residual = 0.0116405, Final residual = 0.000459953, No Iterations 4
bounding nuTilda, min: -0.372051 max: 8.2264 average: 0.403393
ExecutionTime = 3.15 s  ClockTime = 8 s

    functionObjects::div contErr writing field: div(phi)
Time = 39

smoothSolver:  Solving for Ux, Initial residual = 0.0222687, Final residual = 0.00160347, No Iterations 2
smoothSolver:  Solving for Uy, Initial residual = 0.0368861, Final residual = 0.00270916, No Iterations 2
GAMG:  Solving for p, Initial residual = 0.414781, Final residual = 0.0345358, No Iterations 7
time step continuity errors : sum local = 0.0012251, global = 0.000253845, cumulative = 0.00188781
smoothSolver:  Solving for nuTilda, Initial residual = 0.0114, Final residual = 0.000456928, No Iterations 4
bounding nuTilda, min: -0.380128 max: 8.04322 average: 0.404496
ExecutionTime = 3.18 s  ClockTime = 8 s

    functionObjects::div contErr writing field: div(phi)
Time = 40

smoothSolver:  Solving for Ux, Initial residual = 0.0231618, Final residual = 0.001936, No Iterations 2
smoothSolver:  Solving for Uy, Initial residual = 0.0395058, Final residual = 0.00319221, No Iterations 2
GAMG:  Solving for p, Initial residual = 0.382785, Final residual = 0.0338494, No Iterations 7
time step continuity errors : sum local = 0.00119803, global = 0.000234569, cumulative = 0.00212238
smoothSolver:  Solving for nuTilda, Initial residual = 0.0111561, Final residual = 0.000454182, No Iterations 4
bounding nuTilda, min: -0.31747 max: 7.91246 average: 0.404986
ExecutionTime = 3.22 s  ClockTime = 8 s

    functionObjects::div contErr writing field: div(phi)
Time = 41

smoothSolver:  Solving for Ux, Initial residual = 0.0225405, Final residual = 0.00193792, No Iterations 2
smoothSolver:  Solving for Uy, Initial residual = 0.0382803, Final residual = 0.00342632, No Iterations 2
GAMG:  Solving for p, Initial residual = 0.310741, Final residual = 0.0268865, No Iterations 7
time step continuity errors : sum local = 0.00113014, global = 0.000288068, cumulative = 0.00241045
smoothSolver:  Solving for nuTilda, Initial residual = 0.0109054, Final residual = 0.000449884, No Iterations 4
bounding nuTilda, min: -0.327645 max: 7.74388 average: 0.404966
ExecutionTime = 3.32 s  ClockTime = 9 s

    functionObjects::div contErr writing field: div(phi)
Time = 42

smoothSolver:  Solving for Ux, Initial residual = 0.0204157, Final residual = 0.00170464, No Iterations 2
smoothSolver:  Solving for Uy, Initial residual = 0.0332462, Final residual = 0.00260817, No Iterations 2
GAMG:  Solving for p, Initial residual = 0.260019, Final residual = 0.0259932, No Iterations 7
time step continuity errors : sum local = 0.00128104, global = -0.000247287, cumulative = 0.00216316
smoothSolver:  Solving for nuTilda, Initial residual = 0.0106002, Final residual = 0.000447517, No Iterations 4
bounding nuTilda, min: -0.352435 max: 7.63539 average: 0.404445
ExecutionTime = 3.41 s  ClockTime = 9 s

    functionObjects::div contErr writing field: div(phi)
Time = 43

smoothSolver:  Solving for Ux, Initial residual = 0.0202007, Final residual = 0.00170895, No Iterations 2
smoothSolver:  Solving for Uy, Initial residual = 0.0326819, Final residual = 0.00279598, No Iterations 2
GAMG:  Solving for p, Initial residual = 0.231906, Final residual = 0.0189858, No Iterations 7
time step continuity errors : sum local = 0.000999301, global = -0.000209522, cumulative = 0.00195364
smoothSolver:  Solving for nuTilda, Initial residual = 0.0103305, Final residual = 0.000441925, No Iterations 4
bounding nuTilda, min: -0.322034 max: 7.4882 average: 0.403575
ExecutionTime = 3.51 s  ClockTime = 9 s

    functionObjects::div contErr writing field: div(phi)
Time = 44

smoothSolver:  Solving for Ux, Initial residual = 0.0205585, Final residual = 0.00185237, No Iterations 2
smoothSolver:  Solving for Uy, Initial residual = 0.0327825, Final residual = 0.00294411, No Iterations 2
GAMG:  Solving for p, Initial residual = 0.216436, Final residual = 0.0175302, No Iterations 7
time step continuity errors : sum local = 0.000877269, global = -0.000187226, cumulative = 0.00176641
smoothSolver:  Solving for nuTilda, Initial residual = 0.0100537, Final residual = 0.000437096, No Iterations 4
bounding nuTilda, min: -0.314966 max: 7.39754 average: 0.402356
ExecutionTime = 3.57 s  ClockTime = 9 s

    functionObjects::div contErr writing field: div(phi)
Time = 45

smoothSolver:  Solving for Ux, Initial residual = 0.0190714, Final residual = 0.00177228, No Iterations 2
smoothSolver:  Solving for Uy, Initial residual = 0.0285233, Final residual = 0.0024367, No Iterations 2
GAMG:  Solving for p, Initial residual = 0.236951, Final residual = 0.0183423, No Iterations 7
time step continuity errors : sum local = 0.000775939, global = -0.000160726, cumulative = 0.00160569
smoothSolver:  Solving for nuTilda, Initial residual = 0.00976796, Final residual = 0.000430584, No Iterations 4
bounding nuTilda, min: -0.231201 max: 7.28557 average: 0.400868
ExecutionTime = 3.63 s  ClockTime = 9 s

    functionObjects::div contErr writing field: div(phi)
Time = 46

smoothSolver:  Solving for Ux, Initial residual = 0.0172417, Final residual = 0.00153371, No Iterations 2
smoothSolver:  Solving for Uy, Initial residual = 0.026131, Final residual = 0.000811798, No Iterations 4
GAMG:  Solving for p, Initial residual = 0.302355, Final residual = 0.0203664, No Iterations 6
time step continuity errors : sum local = 0.000679917, global = -0.000136248, cumulative = 0.00146944
smoothSolver:  Solving for nuTilda, Initial residual = 0.0094943, Final residual = 0.000425442, No Iterations 4
bounding nuTilda, min: -0.253754 max: 7.17325 average: 0.399159
ExecutionTime = 3.71 s  ClockTime = 10 s

    functionObjects::div contErr writing field: div(phi)
Time = 47

smoothSolver:  Solving for Ux, Initial residual = 0.0162393, Final residual = 0.00149523, No Iterations 2
smoothSolver:  Solving for Uy, Initial residual = 0.0262797, Final residual = 0.000927727, No Iterations 4
GAMG:  Solving for p, Initial residual = 0.332905, Final residual = 0.0327836, No Iterations 5
time step continuity errors : sum local = 0.000938591, global = 0.000205455, cumulative = 0.00167489
smoothSolver:  Solving for nuTilda, Initial residual = 0.00926463, Final residual = 0.000421884, No Iterations 4
bounding nuTilda, min: -0.228241 max: 7.08481 average: 0.397221
ExecutionTime = 3.77 s  ClockTime = 10 s

    functionObjects::div contErr writing field: div(phi)
Time = 48

smoothSolver:  Solving for Ux, Initial residual = 0.015847, Final residual = 0.00157265, No Iterations 2
smoothSolver:  Solving for Uy, Initial residual = 0.0229489, Final residual = 0.00217893, No Iterations 2
GAMG:  Solving for p, Initial residual = 0.302563, Final residual = 0.0246065, No Iterations 7
time step continuity errors : sum local = 0.000703473, global = 0.00014737, cumulative = 0.00182226
smoothSolver:  Solving for nuTilda, Initial residual = 0.0089956, Final residual = 0.000417733, No Iterations 4
bounding nuTilda, min: -0.175373 max: 7.00422 average: 0.395093
ExecutionTime = 3.86 s  ClockTime = 10 s

    functionObjects::div contErr writing field: div(phi)
Time = 49

smoothSolver:  Solving for Ux, Initial residual = 0.0149082, Final residual = 0.000396514, No Iterations 4
smoothSolver:  Solving for Uy, Initial residual = 0.0207716, Final residual = 0.00182342, No Iterations 2
GAMG:  Solving for p, Initial residual = 0.2447, Final residual = 0.0183129, No Iterations 7
time step continuity errors : sum local = 0.000608076, global = 0.000126536, cumulative = 0.0019488
smoothSolver:  Solving for nuTilda, Initial residual = 0.0087647, Final residual = 0.00041485, No Iterations 4
bounding nuTilda, min: -0.128641 max: 6.93015 average: 0.392826
ExecutionTime = 3.96 s  ClockTime = 10 s

    functionObjects::div contErr writing field: div(phi)
Time = 50

smoothSolver:  Solving for Ux, Initial residual = 0.013711, Final residual = 0.00124813, No Iterations 2
smoothSolver:  Solving for Uy, Initial residual = 0.0196406, Final residual = 0.00190005, No Iterations 2
GAMG:  Solving for p, Initial residual = 0.188379, Final residual = 0.0182656, No Iterations 4
time step continuity errors : sum local = 0.00072275, global = 9.01052e-05, cumulative = 0.00203891
smoothSolver:  Solving for nuTilda, Initial residual = 0.00854834, Final residual = 0.000411728, No Iterations 4
bounding nuTilda, min: -0.107988 max: 6.85715 average: 0.390417
ExecutionTime = 4.05 s  ClockTime = 10 s

    functionObjects::div contErr writing field: div(phi)
Time = 51

smoothSolver:  Solving for Ux, Initial residual = 0.0146059, Final residual = 0.00134957, No Iterations 2
smoothSolver:  Solving for Uy, Initial residual = 0.0197548, Final residual = 0.00188095, No Iterations 2
GAMG:  Solving for p, Initial residual = 0.16182, Final residual = 0.0127488, No Iterations 5
time step continuity errors : sum local = 0.000557134, global = -0.000143717, cumulative = 0.00189519
smoothSolver:  Solving for nuTilda, Initial residual = 0.00836387, Final residual = 0.000408823, No Iterations 4
bounding nuTilda, min: -0.143192 max: 6.80188 average: 0.387929
ExecutionTime = 4.11 s  ClockTime = 11 s

    functionObjects::div contErr writing field: div(phi)
Time = 52

smoothSolver:  Solving for Ux, Initial residual = 0.0142686, Final residual = 0.00140368, No Iterations 2
smoothSolver:  Solving for Uy, Initial residual = 0.0199111, Final residual = 0.000788839, No Iterations 4
GAMG:  Solving for p, Initial residual = 0.160644, Final residual = 0.0159582, No Iterations 4
time step continuity errors : sum local = 0.000690751, global = -0.00015842, cumulative = 0.00173677
smoothSolver:  Solving for nuTilda, Initial residual = 0.00818189, Final residual = 0.000406399, No Iterations 4
bounding nuTilda, min: -0.128041 max: 6.72966 average: 0.385426
ExecutionTime = 4.2 s  ClockTime = 11 s

    functionObjects::div contErr writing field: div(phi)
Time = 53

smoothSolver:  Solving for Ux, Initial residual = 0.0118584, Final residual = 0.00116383, No Iterations 2
smoothSolver:  Solving for Uy, Initial residual = 0.0186575, Final residual = 0.000883644, No Iterations 4
GAMG:  Solving for p, Initial residual = 0.16804, Final residual = 0.0167203, No Iterations 6
time step continuity errors : sum local = 0.00064604, global = -0.000177796, cumulative = 0.00155897
smoothSolver:  Solving for nuTilda, Initial residual = 0.00798025, Final residual = 0.000402649, No Iterations 4
bounding nuTilda, min: -0.116668 max: 6.70012 average: 0.3829
ExecutionTime = 4.3 s  ClockTime = 11 s

    functionObjects::div contErr writing field: div(phi)
Time = 54

smoothSolver:  Solving for Ux, Initial residual = 0.0104696, Final residual = 0.00104084, No Iterations 2
smoothSolver:  Solving for Uy, Initial residual = 0.0153966, Final residual = 0.000557052, No Iterations 4
GAMG:  Solving for p, Initial residual = 0.190914, Final residual = 0.0156398, No Iterations 6
time step continuity errors : sum local = 0.000502236, global = -0.000125941, cumulative = 0.00143303
smoothSolver:  Solving for nuTilda, Initial residual = 0.00781695, Final residual = 0.000395953, No Iterations 4
bounding nuTilda, min: -0.127448 max: 6.64684 average: 0.38034
ExecutionTime = 4.38 s  ClockTime = 11 s

    functionObjects::div contErr writing field: div(phi)
Time = 55

smoothSolver:  Solving for Ux, Initial residual = 0.0116185, Final residual = 0.00114201, No Iterations 2
smoothSolver:  Solving for Uy, Initial residual = 0.0140469, Final residual = 0.00136422, No Iterations 2
GAMG:  Solving for p, Initial residual = 0.2117, Final residual = 0.0159103, No Iterations 4
time step continuity errors : sum local = 0.000437093, global = -6.10237e-05, cumulative = 0.00137201
smoothSolver:  Solving for nuTilda, Initial residual = 0.00758168, Final residual = 0.000388646, No Iterations 4
bounding nuTilda, min: -0.135776 max: 6.60725 average: 0.377784
ExecutionTime = 4.44 s  ClockTime = 11 s

    functionObjects::div contErr writing field: div(phi)
Time = 56

smoothSolver:  Solving for Ux, Initial residual = 0.0112319, Final residual = 0.00107614, No Iterations 2
smoothSolver:  Solving for Uy, Initial residual = 0.0138676, Final residual = 0.00055799, No Iterations 4
GAMG:  Solving for p, Initial residual = 0.206502, Final residual = 0.018158, No Iterations 4
time step continuity errors : sum local = 0.000481792, global = 8.07941e-05, cumulative = 0.0014528
smoothSolver:  Solving for nuTilda, Initial residual = 0.00737922, Final residual = 0.000379201, No Iterations 4
bounding nuTilda, min: -0.115252 max: 6.56809 average: 0.375174
ExecutionTime = 4.53 s  ClockTime = 12 s

    functionObjects::div contErr writing field: div(phi)
Time = 57

smoothSolver:  Solving for Ux, Initial residual = 0.00942345, Final residual = 0.00024344, No Iterations 4
smoothSolver:  Solving for Uy, Initial residual = 0.011556, Final residual = 0.000427204, No Iterations 4
GAMG:  Solving for p, Initial residual = 0.172052, Final residual = 0.0135185, No Iterations 8
time step continuity errors : sum local = 0.000412312, global = 0.000102124, cumulative = 0.00155493
smoothSolver:  Solving for nuTilda, Initial residual = 0.0071563, Final residual = 0.000369677, No Iterations 4
bounding nuTilda, min: -0.130585 max: 6.55177 average: 0.37252
ExecutionTime = 4.62 s  ClockTime = 12 s

    functionObjects::div contErr writing field: div(phi)
Time = 58

smoothSolver:  Solving for Ux, Initial residual = 0.00926685, Final residual = 0.000249203, No Iterations 4
smoothSolver:  Solving for Uy, Initial residual = 0.0133715, Final residual = 0.000670614, No Iterations 4
GAMG:  Solving for p, Initial residual = 0.144034, Final residual = 0.0132663, No Iterations 6
time step continuity errors : sum local = 0.000469554, global = 0.000115974, cumulative = 0.0016709
smoothSolver:  Solving for nuTilda, Initial residual = 0.00694936, Final residual = 0.000360993, No Iterations 4
bounding nuTilda, min: -0.136893 max: 6.50904 average: 0.369815
ExecutionTime = 4.64 s  ClockTime = 12 s

    functionObjects::div contErr writing field: div(phi)
Time = 59

smoothSolver:  Solving for Ux, Initial residual = 0.0093959, Final residual = 0.000887299, No Iterations 2
smoothSolver:  Solving for Uy, Initial residual = 0.0140318, Final residual = 0.000793904, No Iterations 4
GAMG:  Solving for p, Initial residual = 0.128489, Final residual = 0.00991503, No Iterations 5
time step continuity errors : sum local = 0.000369916, global = -8.73256e-05, cumulative = 0.00158357
smoothSolver:  Solving for nuTilda, Initial residual = 0.00670922, Final residual = 0.000350675, No Iterations 4
bounding nuTilda, min: -0.0865211 max: 6.49811 average: 0.367081
ExecutionTime = 4.76 s  ClockTime = 12 s

    functionObjects::div contErr writing field: div(phi)
Time = 60

smoothSolver:  Solving for Ux, Initial residual = 0.00910502, Final residual = 0.00087188, No Iterations 2
smoothSolver:  Solving for Uy, Initial residual = 0.0116045, Final residual = 0.000486909, No Iterations 4
GAMG:  Solving for p, Initial residual = 0.126444, Final residual = 0.0114519, No Iterations 4
time step continuity errors : sum local = 0.000420186, global = -9.97895e-05, cumulative = 0.00148378
smoothSolver:  Solving for nuTilda, Initial residual = 0.00649229, Final residual = 0.000340694, No Iterations 4
bounding nuTilda, min: -0.136411 max: 6.46119 average: 0.3643
ExecutionTime = 4.84 s  ClockTime = 12 s

    functionObjects::div contErr writing field: div(phi)
Time = 61

smoothSolver:  Solving for Ux, Initial residual = 0.00903856, Final residual = 0.000244645, No Iterations 4
smoothSolver:  Solving for Uy, Initial residual = 0.010742, Final residual = 0.000429967, No Iterations 4
GAMG:  Solving for p, Initial residual = 0.138105, Final residual = 0.0132274, No Iterations 6
time step continuity errors : sum local = 0.000444358, global = -0.000126687, cumulative = 0.0013571
smoothSolver:  Solving for nuTilda, Initial residual = 0.00629654, Final residual = 0.000332974, No Iterations 4
bounding nuTilda, min: -0.110275 max: 6.44291 average: 0.361496
ExecutionTime = 4.92 s  ClockTime = 13 s

    functionObjects::div contErr writing field: div(phi)
Time = 62

smoothSolver:  Solving for Ux, Initial residual = 0.00813211, Final residual = 0.000781082, No Iterations 2
smoothSolver:  Solving for Uy, Initial residual = 0.0104512, Final residual = 0.00056346, No Iterations 4
GAMG:  Solving for p, Initial residual = 0.145477, Final residual = 0.0141144, No Iterations 7
time step continuity errors : sum local = 0.000422169, global = 8.93412e-05, cumulative = 0.00144644
smoothSolver:  Solving for nuTilda, Initial residual = 0.00608794, Final residual = 0.000324627, No Iterations 4
bounding nuTilda, min: -0.0703562 max: 6.4251 average: 0.358712
ExecutionTime = 4.99 s  ClockTime = 13 s

    functionObjects::div contErr writing field: div(phi)
Time = 63

smoothSolver:  Solving for Ux, Initial residual = 0.00749031, Final residual = 0.000748694, No Iterations 2
smoothSolver:  Solving for Uy, Initial residual = 0.00920686, Final residual = 0.000361279, No Iterations 4
GAMG:  Solving for p, Initial residual = 0.142838, Final residual = 0.0119716, No Iterations 4
time step continuity errors : sum local = 0.000325628, global = -3.57018e-05, cumulative = 0.00141074
smoothSolver:  Solving for nuTilda, Initial residual = 0.00591852, Final residual = 0.000317404, No Iterations 4
bounding nuTilda, min: -0.113583 max: 6.39629 average: 0.355904
ExecutionTime = 5.07 s  ClockTime = 13 s

    functionObjects::div contErr writing field: div(phi)
Time = 64

smoothSolver:  Solving for Ux, Initial residual = 0.00674131, Final residual = 0.000221047, No Iterations 4
smoothSolver:  Solving for Uy, Initial residual = 0.0109253, Final residual = 0.00050235, No Iterations 4
GAMG:  Solving for p, Initial residual = 0.135666, Final residual = 0.0119692, No Iterations 4
time step continuity errors : sum local = 0.000328318, global = -1.94103e-05, cumulative = 0.00139133
smoothSolver:  Solving for nuTilda, Initial residual = 0.00578008, Final residual = 0.000312286, No Iterations 4
bounding nuTilda, min: -0.0452809 max: 6.37671 average: 0.353117
ExecutionTime = 5.15 s  ClockTime = 13 s

    functionObjects::div contErr writing field: div(phi)
Time = 65

smoothSolver:  Solving for Ux, Initial residual = 0.00591598, Final residual = 0.000192631, No Iterations 4
smoothSolver:  Solving for Uy, Initial residual = 0.0108391, Final residual = 0.000663391, No Iterations 4
GAMG:  Solving for p, Initial residual = 0.119503, Final residual = 0.0106519, No Iterations 5
time step continuity errors : sum local = 0.000313034, global = 6.6297e-05, cumulative = 0.00145762
smoothSolver:  Solving for nuTilda, Initial residual = 0.00565096, Final residual = 0.000308574, No Iterations 4
bounding nuTilda, min: -0.0618265 max: 6.34833 average: 0.350345
ExecutionTime = 5.22 s  ClockTime = 13 s

    functionObjects::div contErr writing field: div(phi)
Time = 66

smoothSolver:  Solving for Ux, Initial residual = 0.00634534, Final residual = 0.00017798, No Iterations 4
smoothSolver:  Solving for Uy, Initial residual = 0.00758402, Final residual = 0.000402558, No Iterations 4
GAMG:  Solving for p, Initial residual = 0.104803, Final residual = 0.00987604, No Iterations 5
time step continuity errors : sum local = 0.000307764, global = 8.62519e-05, cumulative = 0.00154388
smoothSolver:  Solving for nuTilda, Initial residual = 0.00557387, Final residual = 0.000305723, No Iterations 4
bounding nuTilda, min: -0.0890584 max: 6.32501 average: 0.347547
ExecutionTime = 5.28 s  ClockTime = 14 s

    functionObjects::div contErr writing field: div(phi)
Time = 67

smoothSolver:  Solving for Ux, Initial residual = 0.0073395, Final residual = 0.00020417, No Iterations 4
smoothSolver:  Solving for Uy, Initial residual = 0.00766834, Final residual = 0.000360914, No Iterations 4
GAMG:  Solving for p, Initial residual = 0.0995415, Final residual = 0.00895629, No Iterations 5
time step continuity errors : sum local = 0.000285098, global = -6.33153e-05, cumulative = 0.00148056
smoothSolver:  Solving for nuTilda, Initial residual = 0.00550419, Final residual = 0.000303935, No Iterations 4
bounding nuTilda, min: -0.0326995 max: 6.30881 average: 0.344789
ExecutionTime = 5.35 s  ClockTime = 14 s

    functionObjects::div contErr writing field: div(phi)
Time = 68

smoothSolver:  Solving for Ux, Initial residual = 0.00688418, Final residual = 0.000180323, No Iterations 4
smoothSolver:  Solving for Uy, Initial residual = 0.0093046, Final residual = 0.000519818, No Iterations 4
GAMG:  Solving for p, Initial residual = 0.0924326, Final residual = 0.00794217, No Iterations 4
time step continuity errors : sum local = 0.00024944, global = -5.04296e-05, cumulative = 0.00143013
smoothSolver:  Solving for nuTilda, Initial residual = 0.00544465, Final residual = 0.000303614, No Iterations 4
bounding nuTilda, min: -0.0872502 max: 6.29664 average: 0.342021
ExecutionTime = 5.43 s  ClockTime = 14 s

    functionObjects::div contErr writing field: div(phi)
Time = 69

smoothSolver:  Solving for Ux, Initial residual = 0.00590657, Final residual = 0.000171352, No Iterations 4
smoothSolver:  Solving for Uy, Initial residual = 0.00835933, Final residual = 0.000312279, No Iterations 4
GAMG:  Solving for p, Initial residual = 0.0872922, Final residual = 0.00818091, No Iterations 5
time step continuity errors : sum local = 0.000248748, global = -7.64753e-05, cumulative = 0.00135365
smoothSolver:  Solving for nuTilda, Initial residual = 0.00539237, Final residual = 0.000302645, No Iterations 4
bounding nuTilda, min: -0.0286383 max: 6.28502 average: 0.339289
ExecutionTime = 5.52 s  ClockTime = 14 s

    functionObjects::div contErr writing field: div(phi)
Time = 70

smoothSolver:  Solving for Ux, Initial residual = 0.00563963, Final residual = 0.000189133, No Iterations 4
smoothSolver:  Solving for Uy, Initial residual = 0.00914601, Final residual = 0.0003812, No Iterations 4
GAMG:  Solving for p, Initial residual = 0.0878407, Final residual = 0.0075073, No Iterations 6
time step continuity errors : sum local = 0.000222105, global = -4.96619e-05, cumulative = 0.00130399
smoothSolver:  Solving for nuTilda, Initial residual = 0.00536597, Final residual = 0.000301299, No Iterations 4
bounding nuTilda, min: -0.098069 max: 6.2814 average: 0.33655
ExecutionTime = 5.61 s  ClockTime = 14 s

    functionObjects::div contErr writing field: div(phi)
Time = 71

smoothSolver:  Solving for Ux, Initial residual = 0.0051293, Final residual = 0.000158798, No Iterations 4
smoothSolver:  Solving for Uy, Initial residual = 0.00947591, Final residual = 0.000543868, No Iterations 4
GAMG:  Solving for p, Initial residual = 0.0832331, Final residual = 0.00787254, No Iterations 7
time step continuity errors : sum local = 0.000226265, global = 4.86318e-05, cumulative = 0.00135262
smoothSolver:  Solving for nuTilda, Initial residual = 0.00533879, Final residual = 0.000301545, No Iterations 4
bounding nuTilda, min: -0.0318559 max: 6.28207 average: 0.333845
ExecutionTime = 5.73 s  ClockTime = 15 s

    functionObjects::div contErr writing field: div(phi)
Time = 72

smoothSolver:  Solving for Ux, Initial residual = 0.00508276, Final residual = 0.000157615, No Iterations 4
smoothSolver:  Solving for Uy, Initial residual = 0.00652019, Final residual = 0.00031708, No Iterations 4
GAMG:  Solving for p, Initial residual = 0.0741654, Final residual = 0.00520243, No Iterations 6
time step continuity errors : sum local = 0.000144465, global = 2.44086e-05, cumulative = 0.00137703
smoothSolver:  Solving for nuTilda, Initial residual = 0.00531852, Final residual = 0.000301175, No Iterations 4
bounding nuTilda, min: -0.0933622 max: 6.28117 average: 0.331151
ExecutionTime = 5.81 s  ClockTime = 15 s

    functionObjects::div contErr writing field: div(phi)
Time = 73

smoothSolver:  Solving for Ux, Initial residual = 0.00580502, Final residual = 0.000185122, No Iterations 4
smoothSolver:  Solving for Uy, Initial residual = 0.00567497, Final residual = 0.000301334, No Iterations 4
GAMG:  Solving for p, Initial residual = 0.0724651, Final residual = 0.00559055, No Iterations 5
time step continuity errors : sum local = 0.000151483, global = 4.76336e-05, cumulative = 0.00142467
smoothSolver:  Solving for nuTilda, Initial residual = 0.00530966, Final residual = 0.000300319, No Iterations 4
bounding nuTilda, min: -0.0444313 max: 6.25206 average: 0.328478
ExecutionTime = 5.88 s  ClockTime = 15 s

    functionObjects::div contErr writing field: div(phi)
Time = 74

smoothSolver:  Solving for Ux, Initial residual = 0.00538424, Final residual = 0.000155212, No Iterations 4
smoothSolver:  Solving for Uy, Initial residual = 0.00634619, Final residual = 0.000441121, No Iterations 4
GAMG:  Solving for p, Initial residual = 0.0683162, Final residual = 0.00523146, No Iterations 5
time step continuity errors : sum local = 0.00014083, global = 4.82634e-05, cumulative = 0.00147293
smoothSolver:  Solving for nuTilda, Initial residual = 0.00529445, Final residual = 0.00029873, No Iterations 4
bounding nuTilda, min: -0.0243281 max: 6.22424 average: 0.325841
ExecutionTime = 5.96 s  ClockTime = 15 s

    functionObjects::div contErr writing field: div(phi)
Time = 75

smoothSolver:  Solving for Ux, Initial residual = 0.00467746, Final residual = 0.000148857, No Iterations 4
smoothSolver:  Solving for Uy, Initial residual = 0.0054781, Final residual = 0.000241636, No Iterations 4
GAMG:  Solving for p, Initial residual = 0.0599564, Final residual = 0.0052004, No Iterations 5
time step continuity errors : sum local = 0.000142236, global = 4.20445e-05, cumulative = 0.00151497
smoothSolver:  Solving for nuTilda, Initial residual = 0.00526351, Final residual = 0.000299201, No Iterations 4
bounding nuTilda, min: -0.0397028 max: 6.22824 average: 0.323201
ExecutionTime = 6.03 s  ClockTime = 15 s

    functionObjects::div contErr writing field: div(phi)
Time = 76

smoothSolver:  Solving for Ux, Initial residual = 0.00502682, Final residual = 0.000174455, No Iterations 4
smoothSolver:  Solving for Uy, Initial residual = 0.00649672, Final residual = 0.000315292, No Iterations 4
GAMG:  Solving for p, Initial residual = 0.0570973, Final residual = 0.00567193, No Iterations 7
time step continuity errors : sum local = 0.000162256, global = -3.58346e-05, cumulative = 0.00147914
smoothSolver:  Solving for nuTilda, Initial residual = 0.00524167, Final residual = 0.000298786, No Iterations 4
bounding nuTilda, min: -0.0499039 max: 6.22743 average: 0.320598
ExecutionTime = 6.12 s  ClockTime = 16 s

    functionObjects::div contErr writing field: div(phi)
Time = 77

smoothSolver:  Solving for Ux, Initial residual = 0.00504695, Final residual = 0.000147748, No Iterations 4
smoothSolver:  Solving for Uy, Initial residual = 0.00676916, Final residual = 0.00045254, No Iterations 4
GAMG:  Solving for p, Initial residual = 0.0509817, Final residual = 0.00381586, No Iterations 6
time step continuity errors : sum local = 0.000111637, global = -2.28199e-05, cumulative = 0.00145632
smoothSolver:  Solving for nuTilda, Initial residual = 0.00522036, Final residual = 0.000297909, No Iterations 4
bounding nuTilda, min: -0.0496958 max: 6.20206 average: 0.318037
ExecutionTime = 6.22 s  ClockTime = 16 s

    functionObjects::div contErr writing field: div(phi)
Time = 78

smoothSolver:  Solving for Ux, Initial residual = 0.0048529, Final residual = 0.000141374, No Iterations 4
smoothSolver:  Solving for Uy, Initial residual = 0.00507979, Final residual = 0.000239771, No Iterations 4
GAMG:  Solving for p, Initial residual = 0.0449062, Final residual = 0.00317144, No Iterations 7
time step continuity errors : sum local = 9.15566e-05, global = -2.35222e-05, cumulative = 0.0014328
smoothSolver:  Solving for nuTilda, Initial residual = 0.00519351, Final residual = 0.000297011, No Iterations 4
bounding nuTilda, min: -0.0287836 max: 6.17904 average: 0.315499
ExecutionTime = 6.33 s  ClockTime = 16 s

    functionObjects::div contErr writing field: div(phi)
Time = 79

smoothSolver:  Solving for Ux, Initial residual = 0.00520602, Final residual = 0.000168953, No Iterations 4
smoothSolver:  Solving for Uy, Initial residual = 0.00559725, Final residual = 0.000262721, No Iterations 4
GAMG:  Solving for p, Initial residual = 0.046178, Final residual = 0.0036209, No Iterations 7
time step continuity errors : sum local = 0.000100431, global = -2.66796e-05, cumulative = 0.00140612
smoothSolver:  Solving for nuTilda, Initial residual = 0.00516528, Final residual = 0.000295522, No Iterations 4
bounding nuTilda, min: -0.0353492 max: 6.18639 average: 0.313013
ExecutionTime = 6.43 s  ClockTime = 16 s

    functionObjects::div contErr writing field: div(phi)
Time = 80

smoothSolver:  Solving for Ux, Initial residual = 0.00479418, Final residual = 0.000146425, No Iterations 4
smoothSolver:  Solving for Uy, Initial residual = 0.00598863, Final residual = 0.000391429, No Iterations 4
GAMG:  Solving for p, Initial residual = 0.0455106, Final residual = 0.00434941, No Iterations 7
time step continuity errors : sum local = 0.000115922, global = -2.31001e-05, cumulative = 0.00138302
smoothSolver:  Solving for nuTilda, Initial residual = 0.00514347, Final residual = 0.000295065, No Iterations 4
bounding nuTilda, min: -0.039145 max: 6.19725 average: 0.310587
ExecutionTime = 6.5 s  ClockTime = 16 s

    functionObjects::div contErr writing field: div(phi)
Time = 81

smoothSolver:  Solving for Ux, Initial residual = 0.00411654, Final residual = 0.000137947, No Iterations 4
smoothSolver:  Solving for Uy, Initial residual = 0.00427437, Final residual = 0.000199075, No Iterations 4
GAMG:  Solving for p, Initial residual = 0.0415679, Final residual = 0.00331318, No Iterations 8
time step continuity errors : sum local = 8.68739e-05, global = 1.70758e-05, cumulative = 0.00140009
smoothSolver:  Solving for nuTilda, Initial residual = 0.00510989, Final residual = 0.000294874, No Iterations 4
bounding nuTilda, min: -0.0453033 max: 6.20206 average: 0.308201
ExecutionTime = 6.57 s  ClockTime = 17 s

    functionObjects::div contErr writing field: div(phi)
Time = 82

smoothSolver:  Solving for Ux, Initial residual = 0.00427775, Final residual = 0.000161046, No Iterations 4
smoothSolver:  Solving for Uy, Initial residual = 0.00509737, Final residual = 0.000256829, No Iterations 4
GAMG:  Solving for p, Initial residual = 0.040606, Final residual = 0.00298068, No Iterations 5
time step continuity errors : sum local = 7.92331e-05, global = 2.47494e-05, cumulative = 0.00142484
smoothSolver:  Solving for nuTilda, Initial residual = 0.00505481, Final residual = 0.000294319, No Iterations 4
bounding nuTilda, min: -0.0586741 max: 6.18609 average: 0.305879
ExecutionTime = 6.62 s  ClockTime = 17 s

    functionObjects::div contErr writing field: div(phi)
Time = 83

smoothSolver:  Solving for Ux, Initial residual = 0.00407946, Final residual = 0.000142057, No Iterations 4
smoothSolver:  Solving for Uy, Initial residual = 0.00539507, Final residual = 0.000388486, No Iterations 4
GAMG:  Solving for p, Initial residual = 0.0364182, Final residual = 0.00340979, No Iterations 5
time step continuity errors : sum local = 9.26882e-05, global = 2.03751e-05, cumulative = 0.00144522
smoothSolver:  Solving for nuTilda, Initial residual = 0.00502424, Final residual = 0.000293455, No Iterations 4
bounding nuTilda, min: -0.112588 max: 6.15616 average: 0.30362
ExecutionTime = 6.68 s  ClockTime = 17 s

    functionObjects::div contErr writing field: div(phi)
Time = 84

smoothSolver:  Solving for Ux, Initial residual = 0.00387904, Final residual = 0.000135074, No Iterations 4
smoothSolver:  Solving for Uy, Initial residual = 0.00353546, Final residual = 0.000206152, No Iterations 4
GAMG:  Solving for p, Initial residual = 0.0323605, Final residual = 0.00278397, No Iterations 7
time step continuity errors : sum local = 7.64213e-05, global = 1.46286e-05, cumulative = 0.00145985
smoothSolver:  Solving for nuTilda, Initial residual = 0.00500862, Final residual = 0.000292053, No Iterations 4
bounding nuTilda, min: -0.0683097 max: 6.17271 average: 0.301396
ExecutionTime = 6.74 s  ClockTime = 17 s

    functionObjects::div contErr writing field: div(phi)
Time = 85

smoothSolver:  Solving for Ux, Initial residual = 0.004396, Final residual = 0.000157599, No Iterations 4
smoothSolver:  Solving for Uy, Initial residual = 0.00406254, Final residual = 0.000217986, No Iterations 4
GAMG:  Solving for p, Initial residual = 0.0334844, Final residual = 0.00300336, No Iterations 6
time step continuity errors : sum local = 8.21667e-05, global = -1.49374e-05, cumulative = 0.00144491
smoothSolver:  Solving for nuTilda, Initial residual = 0.0049902, Final residual = 0.000291269, No Iterations 4
bounding nuTilda, min: -0.108319 max: 6.18659 average: 0.299205
ExecutionTime = 6.79 s  ClockTime = 17 s

    functionObjects::div contErr writing field: div(phi)
Time = 86

smoothSolver:  Solving for Ux, Initial residual = 0.00415687, Final residual = 0.000137738, No Iterations 4
smoothSolver:  Solving for Uy, Initial residual = 0.00481095, Final residual = 0.000346006, No Iterations 4
GAMG:  Solving for p, Initial residual = 0.0316722, Final residual = 0.00259759, No Iterations 8
time step continuity errors : sum local = 7.01959e-05, global = -1.4593e-05, cumulative = 0.00143032
smoothSolver:  Solving for nuTilda, Initial residual = 0.00493925, Final residual = 0.000291001, No Iterations 4
bounding nuTilda, min: -0.0764928 max: 6.19123 average: 0.297051
ExecutionTime = 6.84 s  ClockTime = 18 s

    functionObjects::div contErr writing field: div(phi)
Time = 87

smoothSolver:  Solving for Ux, Initial residual = 0.00363354, Final residual = 0.000130351, No Iterations 4
smoothSolver:  Solving for Uy, Initial residual = 0.00348039, Final residual = 0.000177799, No Iterations 4
GAMG:  Solving for p, Initial residual = 0.0274741, Final residual = 0.00261694, No Iterations 6
time step continuity errors : sum local = 7.04014e-05, global = -1.39592e-05, cumulative = 0.00141636
smoothSolver:  Solving for nuTilda, Initial residual = 0.00489408, Final residual = 0.000290488, No Iterations 4
bounding nuTilda, min: -0.0767447 max: 6.18299 average: 0.294881
ExecutionTime = 6.87 s  ClockTime = 18 s

    functionObjects::div contErr writing field: div(phi)
Time = 88

smoothSolver:  Solving for Ux, Initial residual = 0.00402595, Final residual = 0.000149735, No Iterations 4
smoothSolver:  Solving for Uy, Initial residual = 0.00405503, Final residual = 0.000209348, No Iterations 4
GAMG:  Solving for p, Initial residual = 0.0280932, Final residual = 0.00240074, No Iterations 7
time step continuity errors : sum local = 6.5216e-05, global = -1.66697e-05, cumulative = 0.00139969
smoothSolver:  Solving for nuTilda, Initial residual = 0.00487491, Final residual = 0.000289454, No Iterations 4
bounding nuTilda, min: -0.0286294 max: 6.14825 average: 0.292714
ExecutionTime = 6.94 s  ClockTime = 18 s

    functionObjects::div contErr writing field: div(phi)
Time = 89

smoothSolver:  Solving for Ux, Initial residual = 0.00379943, Final residual = 0.000129227, No Iterations 4
smoothSolver:  Solving for Uy, Initial residual = 0.00452163, Final residual = 0.000333102, No Iterations 4
GAMG:  Solving for p, Initial residual = 0.0259906, Final residual = 0.00209115, No Iterations 7
time step continuity errors : sum local = 5.72594e-05, global = -1.31118e-05, cumulative = 0.00138658
smoothSolver:  Solving for nuTilda, Initial residual = 0.00487413, Final residual = 0.000288069, No Iterations 4
bounding nuTilda, min: -0.0586517 max: 6.14711 average: 0.290521
ExecutionTime = 7 s  ClockTime = 18 s

    functionObjects::div contErr writing field: div(phi)
Time = 90

smoothSolver:  Solving for Ux, Initial residual = 0.0034297, Final residual = 0.000123745, No Iterations 4
smoothSolver:  Solving for Uy, Initial residual = 0.00297952, Final residual = 0.000171639, No Iterations 4
GAMG:  Solving for p, Initial residual = 0.0224786, Final residual = 0.00208245, No Iterations 7
time step continuity errors : sum local = 5.66309e-05, global = -1.29096e-05, cumulative = 0.00137367
smoothSolver:  Solving for nuTilda, Initial residual = 0.00485692, Final residual = 0.000286905, No Iterations 4
bounding nuTilda, min: -0.0461231 max: 6.15838 average: 0.288314
ExecutionTime = 7.08 s  ClockTime = 19 s

    functionObjects::div contErr writing field: div(phi)
Time = 91

smoothSolver:  Solving for Ux, Initial residual = 0.00383423, Final residual = 0.000147767, No Iterations 4
smoothSolver:  Solving for Uy, Initial residual = 0.00343822, Final residual = 0.000184903, No Iterations 4
GAMG:  Solving for p, Initial residual = 0.0242954, Final residual = 0.00241981, No Iterations 5
time step continuity errors : sum local = 6.4661e-05, global = 9.0442e-06, cumulative = 0.00138271
smoothSolver:  Solving for nuTilda, Initial residual = 0.00483476, Final residual = 0.000287545, No Iterations 4
bounding nuTilda, min: -0.0445094 max: 6.16392 average: 0.286096
ExecutionTime = 7.19 s  ClockTime = 19 s

    functionObjects::div contErr writing field: div(phi)
Time = 92

smoothSolver:  Solving for Ux, Initial residual = 0.00360716, Final residual = 0.000128729, No Iterations 4
smoothSolver:  Solving for Uy, Initial residual = 0.00387537, Final residual = 0.000297661, No Iterations 4
GAMG:  Solving for p, Initial residual = 0.02317, Final residual = 0.00195419, No Iterations 6
time step continuity errors : sum local = 5.14039e-05, global = 8.8195e-06, cumulative = 0.00139153
smoothSolver:  Solving for nuTilda, Initial residual = 0.00481071, Final residual = 0.000287814, No Iterations 4
bounding nuTilda, min: -0.0460501 max: 6.1613 average: 0.283879
ExecutionTime = 7.29 s  ClockTime = 19 s

    functionObjects::div contErr writing field: div(phi)
Time = 93

smoothSolver:  Solving for Ux, Initial residual = 0.00320072, Final residual = 0.000121829, No Iterations 4
smoothSolver:  Solving for Uy, Initial residual = 0.00249345, Final residual = 0.000149201, No Iterations 4
GAMG:  Solving for p, Initial residual = 0.0197493, Final residual = 0.00184987, No Iterations 6
time step continuity errors : sum local = 4.85994e-05, global = 1.05032e-05, cumulative = 0.00140203
smoothSolver:  Solving for nuTilda, Initial residual = 0.0047959, Final residual = 0.000287783, No Iterations 4
bounding nuTilda, min: -0.0493314 max: 6.1401 average: 0.281665
ExecutionTime = 7.37 s  ClockTime = 19 s

    functionObjects::div contErr writing field: div(phi)
Time = 94

smoothSolver:  Solving for Ux, Initial residual = 0.00361702, Final residual = 0.000141594, No Iterations 4
smoothSolver:  Solving for Uy, Initial residual = 0.00298959, Final residual = 0.000181718, No Iterations 4
GAMG:  Solving for p, Initial residual = 0.0206335, Final residual = 0.00182426, No Iterations 5
time step continuity errors : sum local = 4.86828e-05, global = 1.16427e-05, cumulative = 0.00141368
smoothSolver:  Solving for nuTilda, Initial residual = 0.00481122, Final residual = 0.000288061, No Iterations 4
bounding nuTilda, min: -0.0173998 max: 6.11118 average: 0.279447
ExecutionTime = 7.44 s  ClockTime = 19 s

    functionObjects::div contErr writing field: div(phi)
Time = 95

smoothSolver:  Solving for Ux, Initial residual = 0.0034956, Final residual = 0.000123935, No Iterations 4
smoothSolver:  Solving for Uy, Initial residual = 0.0035158, Final residual = 0.000298066, No Iterations 4
GAMG:  Solving for p, Initial residual = 0.0194763, Final residual = 0.00175501, No Iterations 7
time step continuity errors : sum local = 4.76604e-05, global = 1.11341e-05, cumulative = 0.00142481
smoothSolver:  Solving for nuTilda, Initial residual = 0.00483612, Final residual = 0.00028747, No Iterations 4
bounding nuTilda, min: -0.0149335 max: 6.1204 average: 0.277222
ExecutionTime = 7.52 s  ClockTime = 20 s

    functionObjects::div contErr writing field: div(phi)
Time = 96

smoothSolver:  Solving for Ux, Initial residual = 0.00322507, Final residual = 0.000117203, No Iterations 4
smoothSolver:  Solving for Uy, Initial residual = 0.0025006, Final residual = 0.000155396, No Iterations 4
GAMG:  Solving for p, Initial residual = 0.0165565, Final residual = 0.00149611, No Iterations 9
time step continuity errors : sum local = 4.08032e-05, global = 7.99662e-06, cumulative = 0.00143281
smoothSolver:  Solving for nuTilda, Initial residual = 0.00484613, Final residual = 0.000288266, No Iterations 4
bounding nuTilda, min: -0.0332843 max: 6.12984 average: 0.274991
ExecutionTime = 7.58 s  ClockTime = 20 s

    functionObjects::div contErr writing field: div(phi)
Time = 97

smoothSolver:  Solving for Ux, Initial residual = 0.00350839, Final residual = 0.000139271, No Iterations 4
smoothSolver:  Solving for Uy, Initial residual = 0.00314956, Final residual = 0.00015899, No Iterations 4
GAMG:  Solving for p, Initial residual = 0.0178468, Final residual = 0.00176615, No Iterations 5
time step continuity errors : sum local = 4.7665e-05, global = -3.82021e-06, cumulative = 0.00142899
smoothSolver:  Solving for nuTilda, Initial residual = 0.00484619, Final residual = 0.000289349, No Iterations 4
bounding nuTilda, min: -0.0427487 max: 6.13157 average: 0.272761
ExecutionTime = 7.66 s  ClockTime = 20 s

    functionObjects::div contErr writing field: div(phi)
Time = 98

smoothSolver:  Solving for Ux, Initial residual = 0.0033083, Final residual = 0.000122663, No Iterations 4
smoothSolver:  Solving for Uy, Initial residual = 0.00370136, Final residual = 0.00026287, No Iterations 4
GAMG:  Solving for p, Initial residual = 0.0172025, Final residual = 0.00130217, No Iterations 7
time step continuity errors : sum local = 3.46372e-05, global = -7.17345e-06, cumulative = 0.00142181
smoothSolver:  Solving for nuTilda, Initial residual = 0.00483199, Final residual = 0.00028982, No Iterations 4
bounding nuTilda, min: -0.0571509 max: 6.1227 average: 0.270546
ExecutionTime = 7.77 s  ClockTime = 20 s

    functionObjects::div contErr writing field: div(phi)
Time = 99

smoothSolver:  Solving for Ux, Initial residual = 0.00294667, Final residual = 0.000114986, No Iterations 4
smoothSolver:  Solving for Uy, Initial residual = 0.0023406, Final residual = 0.000128529, No Iterations 4
GAMG:  Solving for p, Initial residual = 0.0148499, Final residual = 0.00139665, No Iterations 7
time step continuity errors : sum local = 3.70914e-05, global = -7.46937e-06, cumulative = 0.00141434
smoothSolver:  Solving for nuTilda, Initial residual = 0.00483712, Final residual = 0.000290594, No Iterations 4
bounding nuTilda, min: -0.0160923 max: 6.0959 average: 0.268346
ExecutionTime = 7.84 s  ClockTime = 20 s

    functionObjects::div contErr writing field: div(phi)
Time = 100

smoothSolver:  Solving for Ux, Initial residual = 0.00338379, Final residual = 0.000132768, No Iterations 4
smoothSolver:  Solving for Uy, Initial residual = 0.00265534, Final residual = 0.000168638, No Iterations 4
GAMG:  Solving for p, Initial residual = 0.0163524, Final residual = 0.00157526, No Iterations 5
time step continuity errors : sum local = 4.23036e-05, global = -5.76473e-06, cumulative = 0.00140858
smoothSolver:  Solving for nuTilda, Initial residual = 0.00485556, Final residual = 0.000291058, No Iterations 4
bounding nuTilda, min: -0.0105495 max: 6.08302 average: 0.266157
ExecutionTime = 7.9 s  ClockTime = 21 s

    functionObjects::div contErr writing field: div(phi)
Time = 101

smoothSolver:  Solving for Ux, Initial residual = 0.00318303, Final residual = 0.000115474, No Iterations 4
smoothSolver:  Solving for Uy, Initial residual = 0.00308211, Final residual = 0.000270772, No Iterations 4
GAMG:  Solving for p, Initial residual = 0.0155572, Final residual = 0.00121314, No Iterations 5
time step continuity errors : sum local = 3.28796e-05, global = 5.08655e-06, cumulative = 0.00141367
smoothSolver:  Solving for nuTilda, Initial residual = 0.00487713, Final residual = 0.000291184, No Iterations 4
bounding nuTilda, min: -0.0169492 max: 6.09064 average: 0.263975
ExecutionTime = 7.96 s  ClockTime = 21 s

    functionObjects::div contErr writing field: div(phi)
Time = 102

smoothSolver:  Solving for Ux, Initial residual = 0.00282544, Final residual = 0.000109856, No Iterations 4
smoothSolver:  Solving for Uy, Initial residual = 0.00227321, Final residual = 0.000141063, No Iterations 4
GAMG:  Solving for p, Initial residual = 0.0132309, Final residual = 0.000864641, No Iterations 6
time step continuity errors : sum local = 2.34254e-05, global = 9.03023e-07, cumulative = 0.00141457
smoothSolver:  Solving for nuTilda, Initial residual = 0.00490177, Final residual = 0.000293111, No Iterations 4
bounding nuTilda, min: -0.047248 max: 6.09493 average: 0.261806
ExecutionTime = 8.03 s  ClockTime = 21 s

    functionObjects::div contErr writing field: div(phi)
Time = 103

smoothSolver:  Solving for Ux, Initial residual = 0.00318628, Final residual = 0.000130295, No Iterations 4
smoothSolver:  Solving for Uy, Initial residual = 0.00280879, Final residual = 0.000138663, No Iterations 4
GAMG:  Solving for p, Initial residual = 0.0147677, Final residual = 0.00114268, No Iterations 5
time step continuity errors : sum local = 3.06375e-05, global = -5.48454e-06, cumulative = 0.00140908
smoothSolver:  Solving for nuTilda, Initial residual = 0.00491036, Final residual = 0.00029464, No Iterations 4
bounding nuTilda, min: -0.0237398 max: 6.09476 average: 0.259651
ExecutionTime = 8.13 s  ClockTime = 21 s

    functionObjects::div contErr writing field: div(phi)
Time = 104

smoothSolver:  Solving for Ux, Initial residual = 0.00297509, Final residual = 0.000112033, No Iterations 4
smoothSolver:  Solving for Uy, Initial residual = 0.00318324, Final residual = 0.000227239, No Iterations 4
GAMG:  Solving for p, Initial residual = 0.0142036, Final residual = 0.00116198, No Iterations 6
time step continuity errors : sum local = 3.09085e-05, global = -5.58373e-06, cumulative = 0.0014035
smoothSolver:  Solving for nuTilda, Initial residual = 0.00491607, Final residual = 0.000295615, No Iterations 4
bounding nuTilda, min: -0.0166156 max: 6.08318 average: 0.257508
ExecutionTime = 8.23 s  ClockTime = 21 s

    functionObjects::div contErr writing field: div(phi)
Time = 105

smoothSolver:  Solving for Ux, Initial residual = 0.00272905, Final residual = 0.000105401, No Iterations 4
smoothSolver:  Solving for Uy, Initial residual = 0.00194629, Final residual = 0.000108939, No Iterations 4
GAMG:  Solving for p, Initial residual = 0.0123034, Final residual = 0.00121048, No Iterations 8
time step continuity errors : sum local = 3.22579e-05, global = -5.67452e-06, cumulative = 0.00139783
smoothSolver:  Solving for nuTilda, Initial residual = 0.00493664, Final residual = 0.000297213, No Iterations 4
bounding nuTilda, min: -0.0244836 max: 6.05584 average: 0.255389
ExecutionTime = 8.31 s  ClockTime = 22 s

    functionObjects::div contErr writing field: div(phi)
Time = 106

smoothSolver:  Solving for Ux, Initial residual = 0.00312365, Final residual = 0.000121668, No Iterations 4
smoothSolver:  Solving for Uy, Initial residual = 0.00236764, Final residual = 0.000157007, No Iterations 4
GAMG:  Solving for p, Initial residual = 0.0135501, Final residual = 0.00115729, No Iterations 7
time step continuity errors : sum local = 3.12307e-05, global = 7.47304e-06, cumulative = 0.0014053
smoothSolver:  Solving for nuTilda, Initial residual = 0.00495577, Final residual = 0.000298177, No Iterations 4
bounding nuTilda, min: -0.0283233 max: 6.05079 average: 0.25329
ExecutionTime = 8.38 s  ClockTime = 22 s

    functionObjects::div contErr writing field: div(phi)
Time = 107

smoothSolver:  Solving for Ux, Initial residual = 0.00292445, Final residual = 0.000105236, No Iterations 4
smoothSolver:  Solving for Uy, Initial residual = 0.00275348, Final residual = 0.000246921, No Iterations 4
GAMG:  Solving for p, Initial residual = 0.0127507, Final residual = 0.00114247, No Iterations 7
time step continuity errors : sum local = 3.11354e-05, global = 7.38309e-06, cumulative = 0.00141268
smoothSolver:  Solving for nuTilda, Initial residual = 0.00497972, Final residual = 0.000299461, No Iterations 4
bounding nuTilda, min: -0.00424352 max: 6.0573 average: 0.251211
ExecutionTime = 8.48 s  ClockTime = 22 s

    functionObjects::div contErr writing field: div(phi)
Time = 108

smoothSolver:  Solving for Ux, Initial residual = 0.00260113, Final residual = 9.9797e-05, No Iterations 4
smoothSolver:  Solving for Uy, Initial residual = 0.00209718, Final residual = 0.000130155, No Iterations 4
GAMG:  Solving for p, Initial residual = 0.0109767, Final residual = 0.000906305, No Iterations 7
time step continuity errors : sum local = 2.47094e-05, global = 4.18569e-06, cumulative = 0.00141687
smoothSolver:  Solving for nuTilda, Initial residual = 0.00502268, Final residual = 0.000301925, No Iterations 4
bounding nuTilda, min: -0.0212886 max: 6.05943 average: 0.249143
ExecutionTime = 8.56 s  ClockTime = 22 s

    functionObjects::div contErr writing field: div(phi)
Time = 109

smoothSolver:  Solving for Ux, Initial residual = 0.00294692, Final residual = 0.000118408, No Iterations 4
smoothSolver:  Solving for Uy, Initial residual = 0.00250809, Final residual = 0.00012153, No Iterations 4
GAMG:  Solving for p, Initial residual = 0.0125657, Final residual = 0.000891586, No Iterations 7
time step continuity errors : sum local = 2.40929e-05, global = -4.61146e-06, cumulative = 0.00141226
smoothSolver:  Solving for nuTilda, Initial residual = 0.00504811, Final residual = 0.000303901, No Iterations 4
bounding nuTilda, min: -0.0458753 max: 6.05821 average: 0.247102
ExecutionTime = 8.65 s  ClockTime = 22 s

    functionObjects::div contErr writing field: div(phi)
Time = 110

smoothSolver:  Solving for Ux, Initial residual = 0.00273654, Final residual = 0.000100547, No Iterations 4
smoothSolver:  Solving for Uy, Initial residual = 0.00283268, Final residual = 0.000200066, No Iterations 4
GAMG:  Solving for p, Initial residual = 0.0121098, Final residual = 0.00119085, No Iterations 5
time step continuity errors : sum local = 3.19155e-05, global = -5.39753e-06, cumulative = 0.00140686
smoothSolver:  Solving for nuTilda, Initial residual = 0.00506672, Final residual = 0.000305733, No Iterations 4
bounding nuTilda, min: -0.0372177 max: 6.0463 average: 0.245076
ExecutionTime = 8.71 s  ClockTime = 23 s

    functionObjects::div contErr writing field: div(phi)
Time = 111

smoothSolver:  Solving for Ux, Initial residual = 0.00247803, Final residual = 9.40099e-05, No Iterations 4
smoothSolver:  Solving for Uy, Initial residual = 0.00174663, Final residual = 9.74319e-05, No Iterations 4
GAMG:  Solving for p, Initial residual = 0.0104788, Final residual = 0.000972071, No Iterations 7
time step continuity errors : sum local = 2.60765e-05, global = 5.35745e-06, cumulative = 0.00141222
smoothSolver:  Solving for nuTilda, Initial residual = 0.00509428, Final residual = 0.000307748, No Iterations 4
bounding nuTilda, min: -0.0182297 max: 6.02149 average: 0.243079
ExecutionTime = 8.8 s  ClockTime = 23 s

    functionObjects::div contErr writing field: div(phi)
Time = 112

smoothSolver:  Solving for Ux, Initial residual = 0.00280594, Final residual = 0.000108638, No Iterations 4
smoothSolver:  Solving for Uy, Initial residual = 0.00215907, Final residual = 0.000144806, No Iterations 4
GAMG:  Solving for p, Initial residual = 0.0117328, Final residual = 0.00116954, No Iterations 6
time step continuity errors : sum local = 3.17022e-05, global = 7.99374e-06, cumulative = 0.00142021
smoothSolver:  Solving for nuTilda, Initial residual = 0.0051229, Final residual = 0.000309472, No Iterations 4
bounding nuTilda, min: -0.00980159 max: 6.00626 average: 0.241105
ExecutionTime = 8.86 s  ClockTime = 23 s

    functionObjects::div contErr writing field: div(phi)
Time = 113

smoothSolver:  Solving for Ux, Initial residual = 0.00257582, Final residual = 9.26914e-05, No Iterations 4
smoothSolver:  Solving for Uy, Initial residual = 0.00251839, Final residual = 0.000224526, No Iterations 4
GAMG:  Solving for p, Initial residual = 0.0111205, Final residual = 0.00100741, No Iterations 6
time step continuity errors : sum local = 2.75402e-05, global = 6.0774e-06, cumulative = 0.00142629
smoothSolver:  Solving for nuTilda, Initial residual = 0.0051544, Final residual = 0.000311328, No Iterations 4
bounding nuTilda, min: -0.0315073 max: 6.01162 average: 0.239161
ExecutionTime = 8.93 s  ClockTime = 23 s

    functionObjects::div contErr writing field: div(phi)
Time = 114

smoothSolver:  Solving for Ux, Initial residual = 0.00231328, Final residual = 8.75032e-05, No Iterations 4
smoothSolver:  Solving for Uy, Initial residual = 0.00188363, Final residual = 0.000118952, No Iterations 4
GAMG:  Solving for p, Initial residual = 0.00946321, Final residual = 0.000935015, No Iterations 5
time step continuity errors : sum local = 2.56078e-05, global = 4.22707e-06, cumulative = 0.00143051
smoothSolver:  Solving for nuTilda, Initial residual = 0.00520108, Final residual = 0.000314522, No Iterations 4
bounding nuTilda, min: -0.0333627 max: 6.01292 average: 0.237249
ExecutionTime = 9.02 s  ClockTime = 23 s

    functionObjects::div contErr writing field: div(phi)
Time = 115

smoothSolver:  Solving for Ux, Initial residual = 0.00268739, Final residual = 0.000103886, No Iterations 4
smoothSolver:  Solving for Uy, Initial residual = 0.00221352, Final residual = 0.000109233, No Iterations 4
GAMG:  Solving for p, Initial residual = 0.010736, Final residual = 0.0010049, No Iterations 5
time step continuity errors : sum local = 2.73527e-05, global = -4.4652e-06, cumulative = 0.00142605
smoothSolver:  Solving for nuTilda, Initial residual = 0.0052561, Final residual = 0.000317505, No Iterations 4
bounding nuTilda, min: -0.0539186 max: 6.01181 average: 0.235347
ExecutionTime = 9.1 s  ClockTime = 24 s

    functionObjects::div contErr writing field: div(phi)
Time = 116

smoothSolver:  Solving for Ux, Initial residual = 0.00247567, Final residual = 8.64941e-05, No Iterations 4
smoothSolver:  Solving for Uy, Initial residual = 0.00250482, Final residual = 0.000178642, No Iterations 4
GAMG:  Solving for p, Initial residual = 0.0103372, Final residual = 0.000977614, No Iterations 6
time step continuity errors : sum local = 2.64551e-05, global = -4.42258e-06, cumulative = 0.00142163
smoothSolver:  Solving for nuTilda, Initial residual = 0.00528218, Final residual = 0.000319499, No Iterations 4
bounding nuTilda, min: -0.0473816 max: 6.00108 average: 0.233478
ExecutionTime = 9.2 s  ClockTime = 24 s

    functionObjects::div contErr writing field: div(phi)
Time = 117

smoothSolver:  Solving for Ux, Initial residual = 0.00218142, Final residual = 8.01176e-05, No Iterations 4
smoothSolver:  Solving for Uy, Initial residual = 0.00159181, Final residual = 8.81512e-05, No Iterations 4
GAMG:  Solving for p, Initial residual = 0.00889547, Final residual = 0.000651128, No Iterations 9
time step continuity errors : sum local = 1.76463e-05, global = 3.78373e-06, cumulative = 0.00142541
smoothSolver:  Solving for nuTilda, Initial residual = 0.00532096, Final residual = 0.00032198, No Iterations 4
bounding nuTilda, min: -0.0307226 max: 5.99083 average: 0.231644
ExecutionTime = 9.27 s  ClockTime = 24 s

    functionObjects::div contErr writing field: div(phi)
Time = 118

smoothSolver:  Solving for Ux, Initial residual = 0.00243662, Final residual = 9.31651e-05, No Iterations 4
smoothSolver:  Solving for Uy, Initial residual = 0.00202534, Final residual = 0.000131351, No Iterations 4
GAMG:  Solving for p, Initial residual = 0.00990191, Final residual = 0.00091889, No Iterations 5
time step continuity errors : sum local = 2.51483e-05, global = 5.62963e-06, cumulative = 0.00143104
smoothSolver:  Solving for nuTilda, Initial residual = 0.00535326, Final residual = 0.000324102, No Iterations 4
bounding nuTilda, min: -0.0274194 max: 5.99796 average: 0.229841
ExecutionTime = 9.35 s  ClockTime = 24 s

    functionObjects::div contErr writing field: div(phi)
Time = 119

smoothSolver:  Solving for Ux, Initial residual = 0.00222905, Final residual = 7.77159e-05, No Iterations 4
smoothSolver:  Solving for Uy, Initial residual = 0.00233073, Final residual = 0.00020202, No Iterations 4
GAMG:  Solving for p, Initial residual = 0.00942472, Final residual = 0.000664153, No Iterations 7
time step continuity errors : sum local = 1.83184e-05, global = 4.15174e-06, cumulative = 0.00143519
smoothSolver:  Solving for nuTilda, Initial residual = 0.00538891, Final residual = 0.000326133, No Iterations 4
bounding nuTilda, min: -0.0272146 max: 6.00248 average: 0.228074
ExecutionTime = 9.46 s  ClockTime = 24 s

    functionObjects::div contErr writing field: div(phi)
Time = 120

smoothSolver:  Solving for Ux, Initial residual = 0.00201273, Final residual = 7.25848e-05, No Iterations 4
smoothSolver:  Solving for Uy, Initial residual = 0.0016646, Final residual = 0.000106866, No Iterations 4
GAMG:  Solving for p, Initial residual = 0.0080397, Final residual = 0.000658468, No Iterations 7
time step continuity errors : sum local = 1.81969e-05, global = 3.5105e-06, cumulative = 0.0014387
smoothSolver:  Solving for nuTilda, Initial residual = 0.00543145, Final residual = 0.00033035, No Iterations 4
bounding nuTilda, min: -0.0347683 max: 6.00422 average: 0.22634
ExecutionTime = 9.51 s  ClockTime = 25 s

    functionObjects::div contErr writing field: div(phi)
Time = 121

smoothSolver:  Solving for Ux, Initial residual = 0.0023713, Final residual = 8.7222e-05, No Iterations 4
smoothSolver:  Solving for Uy, Initial residual = 0.00193128, Final residual = 9.84357e-05, No Iterations 4
GAMG:  Solving for p, Initial residual = 0.00915729, Final residual = 0.000788505, No Iterations 5
time step continuity errors : sum local = 2.16687e-05, global = 3.025e-06, cumulative = 0.00144173
smoothSolver:  Solving for nuTilda, Initial residual = 0.00550965, Final residual = 0.000333189, No Iterations 4
bounding nuTilda, min: -0.0515523 max: 6.00338 average: 0.224632
ExecutionTime = 9.57 s  ClockTime = 25 s

    functionObjects::div contErr writing field: div(phi)
Time = 122

smoothSolver:  Solving for Ux, Initial residual = 0.0021788, Final residual = 7.08794e-05, No Iterations 4
smoothSolver:  Solving for Uy, Initial residual = 0.00221994, Final residual = 0.000161508, No Iterations 4
GAMG:  Solving for p, Initial residual = 0.00892478, Final residual = 0.000719484, No Iterations 5
time step continuity errors : sum local = 1.9661e-05, global = -2.96367e-06, cumulative = 0.00143876
smoothSolver:  Solving for nuTilda, Initial residual = 0.0055556, Final residual = 0.000335672, No Iterations 4
bounding nuTilda, min: -0.0411402 max: 5.99448 average: 0.222959
ExecutionTime = 9.66 s  ClockTime = 25 s

    functionObjects::div contErr writing field: div(phi)
Time = 123

smoothSolver:  Solving for Ux, Initial residual = 0.00185652, Final residual = 6.47951e-05, No Iterations 4
smoothSolver:  Solving for Uy, Initial residual = 0.00144346, Final residual = 7.95134e-05, No Iterations 4
GAMG:  Solving for p, Initial residual = 0.00766239, Final residual = 0.000632355, No Iterations 7
time step continuity errors : sum local = 1.73078e-05, global = 4.17513e-06, cumulative = 0.00144294
smoothSolver:  Solving for nuTilda, Initial residual = 0.00559564, Final residual = 0.000337828, No Iterations 4
bounding nuTilda, min: -0.0233937 max: 5.97896 average: 0.221327
ExecutionTime = 9.74 s  ClockTime = 25 s

    functionObjects::div contErr writing field: div(phi)
Time = 124

smoothSolver:  Solving for Ux, Initial residual = 0.00203555, Final residual = 7.62654e-05, No Iterations 4
smoothSolver:  Solving for Uy, Initial residual = 0.00186365, Final residual = 0.000115196, No Iterations 4
GAMG:  Solving for p, Initial residual = 0.00869265, Final residual = 0.000819097, No Iterations 5
time step continuity errors : sum local = 2.26043e-05, global = -2.95864e-06, cumulative = 0.00143998
smoothSolver:  Solving for nuTilda, Initial residual = 0.00564155, Final residual = 0.000339225, No Iterations 4
bounding nuTilda, min: -0.0527611 max: 5.95133 average: 0.219727
ExecutionTime = 9.82 s  ClockTime = 25 s

    functionObjects::div contErr writing field: div(phi)
Time = 125

smoothSolver:  Solving for Ux, Initial residual = 0.00190242, Final residual = 6.17501e-05, No Iterations 4
smoothSolver:  Solving for Uy, Initial residual = 0.00213692, Final residual = 0.000178874, No Iterations 4
GAMG:  Solving for p, Initial residual = 0.00829467, Final residual = 0.00055561, No Iterations 7
time step continuity errors : sum local = 1.5482e-05, global = 2.93221e-06, cumulative = 0.00144291
smoothSolver:  Solving for nuTilda, Initial residual = 0.00567304, Final residual = 0.000340346, No Iterations 4
bounding nuTilda, min: -0.07143 max: 5.90956 average: 0.218172
ExecutionTime = 9.91 s  ClockTime = 26 s

    functionObjects::div contErr writing field: div(phi)
Time = 126

smoothSolver:  Solving for Ux, Initial residual = 0.00170493, Final residual = 5.64696e-05, No Iterations 4
smoothSolver:  Solving for Uy, Initial residual = 0.00145328, Final residual = 9.46258e-05, No Iterations 4
GAMG:  Solving for p, Initial residual = 0.00711916, Final residual = 0.000695988, No Iterations 7
time step continuity errors : sum local = 1.94139e-05, global = 3.3213e-06, cumulative = 0.00144623
smoothSolver:  Solving for nuTilda, Initial residual = 0.00569606, Final residual = 0.000341207, No Iterations 4
bounding nuTilda, min: -0.0686604 max: 5.87396 average: 0.216662
ExecutionTime = 9.96 s  ClockTime = 26 s

    functionObjects::div contErr writing field: div(phi)
Time = 127

smoothSolver:  Solving for Ux, Initial residual = 0.00201863, Final residual = 6.95019e-05, No Iterations 4
smoothSolver:  Solving for Uy, Initial residual = 0.00167949, Final residual = 8.79922e-05, No Iterations 4
GAMG:  Solving for p, Initial residual = 0.00811595, Final residual = 0.000776197, No Iterations 5
time step continuity errors : sum local = 2.15303e-05, global = 2.74193e-06, cumulative = 0.00144898
smoothSolver:  Solving for nuTilda, Initial residual = 0.00572824, Final residual = 0.000342263, No Iterations 4
bounding nuTilda, min: -0.047679 max: 5.87742 average: 0.215192
ExecutionTime = 10.04 s  ClockTime = 26 s

    functionObjects::div contErr writing field: div(phi)
Time = 128

smoothSolver:  Solving for Ux, Initial residual = 0.00185269, Final residual = 5.48254e-05, No Iterations 4
smoothSolver:  Solving for Uy, Initial residual = 0.0019775, Final residual = 0.000145955, No Iterations 4
GAMG:  Solving for p, Initial residual = 0.00783655, Final residual = 0.000667909, No Iterations 5
time step continuity errors : sum local = 1.84287e-05, global = -2.48462e-06, cumulative = 0.00144649
smoothSolver:  Solving for nuTilda, Initial residual = 0.00578792, Final residual = 0.000343307, No Iterations 4
bounding nuTilda, min: -0.0756639 max: 5.8791 average: 0.213757
ExecutionTime = 10.12 s  ClockTime = 26 s

    functionObjects::div contErr writing field: div(phi)
Time = 129

smoothSolver:  Solving for Ux, Initial residual = 0.00152098, Final residual = 4.90298e-05, No Iterations 4
smoothSolver:  Solving for Uy, Initial residual = 0.00131544, Final residual = 7.23727e-05, No Iterations 4
GAMG:  Solving for p, Initial residual = 0.00679474, Final residual = 0.000587361, No Iterations 6
time step continuity errors : sum local = 1.62206e-05, global = 3.81172e-06, cumulative = 0.0014503
smoothSolver:  Solving for nuTilda, Initial residual = 0.00579324, Final residual = 0.000343142, No Iterations 4
bounding nuTilda, min: -0.0953202 max: 5.87879 average: 0.212368
ExecutionTime = 10.19 s  ClockTime = 27 s

    functionObjects::div contErr writing field: div(phi)
Time = 130

smoothSolver:  Solving for Ux, Initial residual = 0.00168478, Final residual = 5.94577e-05, No Iterations 4
smoothSolver:  Solving for Uy, Initial residual = 0.00170143, Final residual = 0.000100637, No Iterations 4
GAMG:  Solving for p, Initial residual = 0.0077342, Final residual = 0.000715955, No Iterations 5
time step continuity errors : sum local = 1.99384e-05, global = -2.00592e-06, cumulative = 0.0014483
smoothSolver:  Solving for nuTilda, Initial residual = 0.00576795, Final residual = 0.000342278, No Iterations 4
bounding nuTilda, min: -0.08984 max: 5.87231 average: 0.211019
ExecutionTime = 10.25 s  ClockTime = 27 s

    functionObjects::div contErr writing field: div(phi)
Time = 131

smoothSolver:  Solving for Ux, Initial residual = 0.00156432, Final residual = 4.61304e-05, No Iterations 4
smoothSolver:  Solving for Uy, Initial residual = 0.00193366, Final residual = 0.000157575, No Iterations 4
GAMG:  Solving for p, Initial residual = 0.0074482, Final residual = 0.00054741, No Iterations 7
time step continuity errors : sum local = 1.53673e-05, global = 3.08801e-06, cumulative = 0.00145138
smoothSolver:  Solving for nuTilda, Initial residual = 0.00575125, Final residual = 0.000340301, No Iterations 4
bounding nuTilda, min: -0.0634231 max: 5.8596 average: 0.209728
ExecutionTime = 10.35 s  ClockTime = 27 s

    functionObjects::div contErr writing field: div(phi)
Time = 132

smoothSolver:  Solving for Ux, Initial residual = 0.00138593, Final residual = 4.09216e-05, No Iterations 4
smoothSolver:  Solving for Uy, Initial residual = 0.00127233, Final residual = 8.26212e-05, No Iterations 4
GAMG:  Solving for p, Initial residual = 0.00642552, Final residual = 0.000576865, No Iterations 7
time step continuity errors : sum local = 1.62144e-05, global = 3.2501e-06, cumulative = 0.00145463
smoothSolver:  Solving for nuTilda, Initial residual = 0.00574749, Final residual = 0.000336808, No Iterations 4
bounding nuTilda, min: -0.104347 max: 5.83654 average: 0.208482
ExecutionTime = 10.43 s  ClockTime = 27 s

    functionObjects::div contErr writing field: div(phi)
Time = 133

smoothSolver:  Solving for Ux, Initial residual = 0.00168079, Final residual = 5.29705e-05, No Iterations 4
smoothSolver:  Solving for Uy, Initial residual = 0.00149539, Final residual = 7.98297e-05, No Iterations 4
GAMG:  Solving for p, Initial residual = 0.00724242, Final residual = 0.000664561, No Iterations 5
time step continuity errors : sum local = 1.85857e-05, global = 2.3734e-06, cumulative = 0.00145701
smoothSolver:  Solving for nuTilda, Initial residual = 0.00572337, Final residual = 0.000332427, No Iterations 4
bounding nuTilda, min: -0.112984 max: 5.80148 average: 0.20729
ExecutionTime = 10.51 s  ClockTime = 27 s

    functionObjects::div contErr writing field: div(phi)
Time = 134

smoothSolver:  Solving for Ux, Initial residual = 0.00152842, Final residual = 0.000149228, No Iterations 2
smoothSolver:  Solving for Uy, Initial residual = 0.00177237, Final residual = 0.000132251, No Iterations 4
GAMG:  Solving for p, Initial residual = 0.00699774, Final residual = 0.000568292, No Iterations 5
time step continuity errors : sum local = 1.58236e-05, global = -2.39917e-06, cumulative = 0.00145461
smoothSolver:  Solving for nuTilda, Initial residual = 0.00569078, Final residual = 0.000326613, No Iterations 4
bounding nuTilda, min: -0.09106 max: 5.75268 average: 0.206156
ExecutionTime = 10.59 s  ClockTime = 28 s

    functionObjects::div contErr writing field: div(phi)
Time = 135

smoothSolver:  Solving for Ux, Initial residual = 0.00121146, Final residual = 3.4127e-05, No Iterations 4
smoothSolver:  Solving for Uy, Initial residual = 0.00115708, Final residual = 6.49084e-05, No Iterations 4
GAMG:  Solving for p, Initial residual = 0.00596261, Final residual = 0.00047842, No Iterations 8
time step continuity errors : sum local = 1.33321e-05, global = 2.56388e-06, cumulative = 0.00145717
smoothSolver:  Solving for nuTilda, Initial residual = 0.00568725, Final residual = 0.000318586, No Iterations 4
bounding nuTilda, min: -0.0992176 max: 5.68839 average: 0.205064
ExecutionTime = 10.66 s  ClockTime = 28 s

    functionObjects::div contErr writing field: div(phi)
Time = 136

smoothSolver:  Solving for Ux, Initial residual = 0.00135717, Final residual = 4.37402e-05, No Iterations 4
smoothSolver:  Solving for Uy, Initial residual = 0.00150373, Final residual = 8.68716e-05, No Iterations 4
GAMG:  Solving for p, Initial residual = 0.00672053, Final residual = 0.000497299, No Iterations 6
time step continuity errors : sum local = 1.39534e-05, global = 4.05768e-06, cumulative = 0.00146123
smoothSolver:  Solving for nuTilda, Initial residual = 0.00562102, Final residual = 0.000308458, No Iterations 4
bounding nuTilda, min: -0.111761 max: 5.60681 average: 0.204026
ExecutionTime = 10.75 s  ClockTime = 28 s

